ChEBI
     RDKit          2D

 17 19  0  0  1  0  0  0  0  0999 V2000
    2.7076   -7.5568    0.0000 C   0  0  0  0  0  0  0  0  0  0  0  0
    1.9931   -7.9693    0.0000 C   0  0  0  0  0  0  0  0  0  0  0  0
    1.9931   -8.7943    0.0000 C   0  0  0  0  0  0  0  0  0  0  0  0
    2.7076   -9.2068    0.0000 C   0  0  0  0  0  0  0  0  0  0  0  0
    3.4221   -7.9693    0.0000 C   0  0  0  0  0  0  0  0  0  0  0  0
    3.4221   -8.7943    0.0000 C   0  0  0  0  0  0  0  0  0  0  0  0
    4.8510   -8.7943    0.0000 C   0  0  0  0  0  0  0  0  0  0  0  0
    4.8510   -7.9693    0.0000 C   0  0  0  0  0  0  0  0  0  0  0  0
    5.5655   -7.5568    0.0000 C   0  0  0  0  0  0  0  0  0  0  0  0
    6.2799   -6.3192    0.0000 C   0  0  0  0  0  0  0  0  0  0  0  0
    5.5655   -6.7318    0.0000 C   0  0  0  0  0  0  0  0  0  0  0  0
    6.2799   -7.9693    0.0000 C   0  0  0  0  0  0  0  0  0  0  0  0
    6.9944   -7.5568    0.0000 C   0  0  0  0  0  0  0  0  0  0  0  0
    6.9944   -6.7318    0.0000 C   0  0  0  0  0  0  0  0  0  0  0  0
    4.1365   -7.5568    0.0000 O   0  0  0  0  0  0  0  0  0  0  0  0
    4.1365   -9.2068    0.0000 C   0  0  0  0  0  0  0  0  0  0  0  0
    4.1365  -10.0318    0.0000 O   0  0  0  0  0  0  0  0  0  0  0  0
  1  2  2  0
  1  5  1  0
  2  3  1  0
  3  4  2  0
  4  6  1  0
 15  5  1  0
  5  6  2  0
  6 16  1  0
 15  8  1  0
 16  7  1  0
  7  8  1  0
  8  9  1  6
 11  9  1  0
  9 12  2  0
 10 11  2  0
 10 14  1  0
 12 13  1  0
 13 14  2  0
 16 17  1  0
M  END
>  <ChEBI ID>  (1) 
CHEBI:15605

>  <ChEBI Name>  (1) 
(2S)-flavan-4-ol

>  <Star>  (1) 
3

>  <Definition>  (1) 
A hydroxyflavan that is (2S)-flavan substituted by a hydroxy group at position 4.

>  <Secondary ChEBI ID>  (1) 
CHEBI:187
CHEBI:18546
CHEBI:18548
CHEBI:10867

>  <SMILES>  (1) 
OC1C[C@H](Oc2ccccc12)c1ccccc1

>  <InChI>  (1) 
InChI=1S/C15H14O2/c16-13-10-15(11-6-2-1-3-7-11)17-14-9-5-4-8-12(13)14/h1-9,13,15-16H,10H2/t13?,15-/m0/s1

>  <InChIKey>  (1) 
YTMFRMLVZQOBDR-WUJWULDRSA-N

>  <Formulae>  (1) 
C15H14O2

>  <Charge>  (1) 
0

>  <Mass>  (1) 
226.27046

>  <Monoisotopic Mass>  (1) 
226.09938

>  <IUPAC Names>  (1) 
(2S)-2-phenyl-3,4-dihydro-2H-chromen-4-ol

>  <Synonyms>  (1) 
(2S)-2-phenylchroman-4-ol
(2S)-Flavan-4-ol
(2S)-flavan-4-ol

>  <KEGG COMPOUND Database Links>  (1) 
C02345

>  <BKMS-react Database Links>  (1) 
44950

>  <BRENDA Database Links>  (1) 
1.1.1.234

>  <BRENDALigand Database Links>  (1) 
44950

>  <EnzymePortal Database Links>  (1) 
Q84KP0
Q9XES5

>  <IntEnz Database Links>  (1) 
EC 1.1.1.234

>  <MetaboLights Database Links>  (1) 
MTBLS1693

>  <PubChem Database Links>  (1) 
SID: 8143306
CID: 439712

>  <Rhea Database Links>  (1) 
RHEA:11228

>  <SureChEMBL Database Links>  (1) 
SCHEMBL380283

>  <UniProt Database Links>  (1) 
Q9XES5
Q84KP0

>  <Last Modified>  (1) 
05 May 2015

$$$$

     RDKit          2D

 11 10  0  0  1  0  0  0  0  0999 V2000
    1.4289    0.2357    0.0000 C   0  0  0  0  0  0  0  0  0  0  0  0
    0.7145   -0.1768    0.0000 C   0  0  0  0  0  0  0  0  0  0  0  0
   -1.4289    0.2357    0.0000 S   0  0  0  0  0  0  0  0  0  0  0  0
    0.0000    0.2357    0.0000 C   0  0  0  0  0  0  0  0  0  0  0  0
   -0.7145   -0.1768    0.0000 C   0  0  0  0  0  0  0  0  0  0  0  0
   -2.1434   -0.1768    0.0000 C   0  0  0  0  0  0  0  0  0  0  0  0
    1.4289    1.0607    0.0000 O   0  0  0  0  0  0  0  0  0  0  0  0
   -1.4289    1.0607    0.0000 O   0  0  0  0  0  0  0  0  0  0  0  0
    0.7145   -1.0018    0.0000 N   0  0  0  0  0  0  0  0  0  0  0  0
    0.0000   -1.4143    0.0000 *   0  0  0  0  0  0  0  0  0  0  0  0
    2.1434   -0.1768    0.0000 *   0  0  0  0  0  0  0  0  0  0  0  0
 11  1  1  0
  1  7  2  0
  1  2  1  0
  2  9  1  0
  3  8  2  0
  2  4  1  1
  4  5  1  0
  3  5  1  0
  3  6  1  0
  9 10  1  0
V   10 *
V   11 *
M  END
>  <ChEBI ID>  (2) 
CHEBI:15989

>  <ChEBI Name>  (2) 
L-methionine S-oxide residue

>  <Star>  (2) 
3

>  <Secondary ChEBI ID>  (2) 
CHEBI:8536
CHEBI:14938

>  <SMILES>  (2) 
CS(=O)CC[C@H](N-*)C(-*)=O

>  <Formulae>  (2) 
C5H9NO2S

>  <Charge>  (2) 
0

>  <Mass>  (2) 
147.19500

>  <Monoisotopic Mass>  (2) 
147.03540

>  <Synonyms>  (2) 
L-methionine S-oxide residue
Protein L-methionine S-oxide

>  <KEGG COMPOUND Database Links>  (2) 
C03895

>  <PubChem Database Links>  (2) 
SID: 49693432

>  <Rhea Database Links>  (2) 
RHEA:49136

>  <Last Modified>  (2) 
04 Aug 2014

$$$$

     RDKit          2D

 13 13  0  0  0  0  0  0  0  0999 V2000
    0.7145    0.4125    0.0000 C   0  0  0  0  0  0  0  0  0  0  0  0
    0.0000    0.8250    0.0000 C   0  0  0  0  0  0  0  0  0  0  0  0
   -0.7145    0.4125    0.0000 C   0  0  0  0  0  0  0  0  0  0  0  0
   -0.7145   -0.4125    0.0000 C   0  0  0  0  0  0  0  0  0  0  0  0
   -1.9840    0.0000    0.0000 C   0  0  0  0  0  0  0  0  0  0  0  0
   -1.4991    0.6674    0.0000 N   0  0  0  0  0  0  0  0  0  0  0  0
    1.4289    0.8250    0.0000 C   0  0  0  0  0  0  0  0  0  0  0  0
    1.4289    1.6500    0.0000 O   0  0  0  0  0  0  0  0  0  0  0  0
   -1.4991   -0.6674    0.0000 N   0  0  0  0  0  0  0  0  0  0  0  0
   -1.7540   -1.4521    0.0000 C   0  0  0  0  0  0  0  0  0  0  0  0
    2.1434    0.4125    0.0000 *   0  0  0  0  0  0  0  0  0  0  0  0
    0.7145   -0.4125    0.0000 N   0  0  0  0  0  0  0  0  0  0  0  0
    0.0000   -0.8250    0.0000 *   0  0  0  0  0  0  0  0  0  0  0  0
  1 12  1  0
  1  7  1  0
  1  2  1  1
  3  2  1  0
  6  3  1  0
  4  3  2  0
  9  4  1  0
  5  9  1  0
  5  6  2  0
  7 11  1  0
  8  7  2  0
  9 10  1  0
 12 13  1  0
V   11 *
V   13 *
M  END
>  <ChEBI ID>  (3) 
CHEBI:16367

>  <ChEBI Name>  (3) 
N(tele)-methyl-L-histidine residue

>  <Star>  (3) 
3

>  <Secondary ChEBI ID>  (3) 
CHEBI:43082
CHEBI:8557
CHEBI:14923

>  <SMILES>  (3) 
[C@@H](N*)(C(*)=O)CC=1N=CN(C1)C

>  <Formulae>  (3) 
C7H9N3O

>  <Charge>  (3) 
0

>  <Mass>  (3) 
151.16598

>  <Monoisotopic Mass>  (3) 
151.07456

>  <Synonyms>  (3) 
1'-methyl-L-histidine
4-METHYL-HISTIDINE
N(tele)-methyl-L-histidine residue
Protein Ntau-methyl-L-histidine

>  <DrugBank Database Links>  (3) 
DB04151

>  <KEGG COMPOUND Database Links>  (3) 
C04087

>  <PDBeChem Database Links>  (3) 
HIC

>  <RESID Database Links>  (3) 
AA0317

>  <PubChem Database Links>  (3) 
SID: 53801141

>  <Rhea Database Links>  (3) 
RHEA:19369

>  <UniProt Database Links>  (3) 
Q9UTQ8
P40481

>  <Last Modified>  (3) 
13 Nov 2014

$$$$

     RDKit          2D

 22 22  0  0  1  0  0  0  0  0999 V2000
    0.0000    0.0000    0.0000 N   0  0  0  0  0  0  0  0  0  0  0  0
   -2.0963    1.1651    0.0000 C   0  0  0  0  0  0  0  0  0  0  0  0
   -3.5253    1.1650    0.0000 C   0  0  0  0  0  0  0  0  0  0  0  0
   -2.8108   -0.0725    0.0000 C   0  0  0  0  0  0  0  0  0  0  0  0
   -2.0963   -0.4850    0.0000 C   0  0  0  0  0  0  0  0  0  0  0  0
   -3.5253   -0.4849    0.0000 C   0  0  0  0  0  0  0  0  0  0  0  0
   -2.8108    0.7525    0.0000 N   0  0  0  0  0  0  0  0  0  0  0  0
   -2.8108    1.5776    0.0000 C   0  0  0  0  0  0  0  0  0  0  0  0
    0.4125   -1.2695    0.0000 C   0  0  0  0  0  0  0  0  0  0  0  0
   -0.6674   -0.4849    0.0000 C   0  0  0  0  0  0  0  0  0  0  0  0
   -0.4124   -1.2695    0.0000 N   0  0  0  0  0  0  0  0  0  0  0  0
   -1.3819   -0.0724    0.0000 C   0  0  0  0  0  0  0  0  0  0  0  0
   -4.2397   -0.0724    0.0000 N   0  0  0  0  0  0  0  0  0  0  0  0
   -3.5253   -1.3099    0.0000 O   0  0  0  0  0  0  0  0  0  0  0  0
    0.6674   -0.4849    0.0000 C   0  0  0  0  0  0  0  0  0  0  0  0
    1.3819   -0.0724    0.0000 C   0  0  0  0  0  0  0  0  0  0  0  0
    2.0964   -0.4849    0.0000 C   0  0  0  0  0  0  0  0  0  0  0  0
    2.8108   -0.0724    0.0000 C   0  0  0  0  0  0  0  0  0  0  0  0
    2.8108    0.7526    0.0000 O   0  0  0  0  0  0  0  0  0  0  0  0
    2.0964   -1.3098    0.0000 N   0  0  0  0  0  0  0  0  0  0  0  0
    1.3819   -1.7223    0.0000 *   0  0  0  0  0  0  0  0  0  0  0  0
    3.5253   -0.4849    0.0000 *   0  0  0  0  0  0  0  0  0  0  0  0
 15  1  1  0
 10  1  2  0
  7  2  1  0
  7  3  1  0
  4  7  1  0
  4  5  1  1
  4  6  1  0
  5 12  1  0
  6 14  2  0
  6 13  1  0
  7  8  1  0
  9 15  2  0
 11  9  1  0
 10 11  1  0
 12 10  1  0
 15 16  1  0
 17 16  1  1
 17 18  1  0
 17 20  1  0
 18 22  1  0
 18 19  2  0
 20 21  1  0
M  CHG  1   7   1
V   21 *
V   22 *
M  END
>  <ChEBI ID>  (4) 
CHEBI:16692

>  <ChEBI Name>  (4) 
diphthamide residue

>  <Star>  (4) 
3

>  <Definition>  (4) 
An alpha-amino-acid residue derived from diphthamide.

>  <Secondary ChEBI ID>  (4) 
CHEBI:14757
CHEBI:41889
CHEBI:64617
CHEBI:7994

>  <SMILES>  (4) 
C[N+](C)(C)[C@@H](CCc1nc(C[C@H](N-*)C(-*)=O)c[nH]1)C(N)=O

>  <Formulae>  (4) 
C13H22N5O2

>  <Charge>  (4) 
+1

>  <Mass>  (4) 
280.34550

>  <Monoisotopic Mass>  (4) 
280.17735

>  <Synonyms>  (4) 
2'-[3-carboxamido-3-(trimethylammonio)propyl]-L-histidine
2-[(3R)-3-carbamoyl-3-(trimethylammonio)propyl]-L-histidyl
Diphthamide
EF-2 diphthamide
Elongation factor 2 diphthamide
Peptide diphthamide
diphthamide residue
peptidyl-diphthamide
{3-[4-(2-AMINO-2-CARBOXY-ETHYL)-1H-IMIDAZOL-2-YL]-1-CARBAMOYL-PROPYL}-TRIMETHYL-AMMONIUM

>  <KEGG COMPOUND Database Links>  (4) 
C02872

>  <PDBeChem Database Links>  (4) 
DDE

>  <RESID Database Links>  (4) 
AA0040

>  <GeneOntology Database Links>  (4) 
GO:0017184
GO:0017182

>  <PubChem Database Links>  (4) 
SID: 8144946

>  <Rhea Database Links>  (4) 
RHEA:19753
RHEA:11820

>  <SABIO-RK Database Links>  (4) 
3807

>  <UniProt Database Links>  (4) 
P32324
Q6FPD9
Q5ZKI2
Q002B5
P0CN21
P0CN20
A4QN59
Q7L8W6
Q9CQ28
Q5M9F5
Q9USQ7
Q12429
Q55C80
Q9BTV6
Q0W085
Q6CS90
Q57907
Q9CR25
A7SKJ3
Q7S5C0
Q5RE82
O58832
Q568Y2
Q10206
Q6DE00
Q6CGE7
Q6BPC1
Q0VBY7
Q6P3W2
Q91ZF0
C3MYP9
O81769
A4FYP1
C3NHR8
C3NDY5
Q6BMF6
B0G132
Q5B2Q1
Q4I5M4
Q9BQC3
Q97TX8
Q754E7
Q6MY91
A9A6D8
A6VJP1
A3MU14
Q8U377
Q5E982
Q9CYU6
O74865
P38332
Q59NX9
Q6FXK9
Q9YDI2
O29866
Q8PUH9
O58456
B6YXP9
Q979Z8
Q6BN80
B9LV13
A3CWF9
A1RU15
B1YAU2
Q971V1
Q9HJT0
P32461
Q74Z32
Q4WPU8
Q1LZC9
Q21102
Q75JG8
Q5V2B7
B0R4W9
A3DLV7
C5A3K4
Q6FXS6
Q6VUC1
P0CN23
P0CN22
Q6BTW5
Q5BFG0
Q4HZI0
Q9HQK6
Q6LZN6
B8GIF8
C3N5D1
C4KGZ7
Q18JS3
Q5JFE7
Q75AZ9
Q4X0S7
Q3SYT1
Q9VGQ9
P0C0V4
Q8STR6
Q4I9U7
Q96FX2
Q9H2P9
A6UU49
Q8TR14
A4YHI8
P49958
Q59MG1
Q6FTG1
Q5ZHX9
P0CN19
P0CN18
Q6CMG4
Q4R312
Q8K0W9
Q7SC15
Q5R7N8
A7IA21
Q9UT33
Q4P8G2
Q6C0G3
Q3E840
Q6CIZ1
Q9CWQ0
Q467Z4
Q2NFJ8
Q567W6
Q6BPU5
Q54PW5
Q5AZJ7
Q8SUZ5
Q4IQ72
Q752D7
Q4WPF7
Q5AD49
Q6FWM1
A7SLX5
Q7S949
O27902
A0B879
Q9BZG8
Q6CLC9
Q3T7C9
Q5NCQ5
Q7SEK8
P0C0V5
Q4I7G0
Q6CUQ9
P40487
O74898
Q12XB4
Q2FQ45
A6US81
Q7SC98
O59713
Q4PA25
Q6GPQ5
Q6C0S8
Q6C1E0
P32469
Q757B6
Q4WN99
Q08DM2
Q09454
Q59SJ9
Q2HJF5
A2RV01
Q9UUG3
Q6C6T1
Q58670
Q3IS55
Q9UZ31
C3MPQ5
Q8TXC7
A2SQF6
Q8ZXR9

>  <Last Modified>  (4) 
27 Jul 2015

$$$$

     RDKit          2D

  6  6  0  0  0  0  0  0  0  0999 V2000
    0.7145   -0.4125    0.0000 C   0  0  0  0  0  0  0  0  0  0  0  0
    0.0000   -0.8250    0.0000 C   0  0  0  0  0  0  0  0  0  0  0  0
    0.7145    0.4125    0.0000 C   0  0  0  0  0  0  0  0  0  0  0  0
    0.0000    0.8250    0.0000 C   0  0  0  0  0  0  0  0  0  0  0  0
   -0.7145   -0.4125    0.0000 C   0  0  0  0  0  0  0  0  0  0  0  0
   -0.7145    0.4125    0.0000 C   0  0  0  0  0  0  0  0  0  0  0  0
  2  1  2  0
  3  1  1  0
  4  3  2  0
  5  2  1  0
  6  4  1  0
  5  6  2  0
M  END
>  <ChEBI ID>  (5) 
CHEBI:16716

>  <ChEBI Name>  (5) 
benzene

>  <Star>  (5) 
3

>  <Definition>  (5) 
A six-carbon aromatic annulene in which each carbon atom donates one of its two 2p electrons into a delocalised pi system. A toxic, flammable liquid byproduct of coal distillation, it is used as an industrial solvent. Benzene is a carcinogen that also damages bone marrow and the central nervous system.

>  <Secondary ChEBI ID>  (5) 
CHEBI:41187
CHEBI:3025
CHEBI:13876
CHEBI:22703

>  <InChI>  (5) 
InChI=1S/C6H6/c1-2-4-6-5-3-1/h1-6H

>  <SMILES>  (5) 
c1ccccc1

>  <InChIKey>  (5) 
UHOVQNZJYSORNB-UHFFFAOYSA-N

>  <Formulae>  (5) 
C6H6

>  <Charge>  (5) 
0

>  <Mass>  (5) 
78.11184

>  <Monoisotopic Mass>  (5) 
78.04695

>  <IUPAC Names>  (5) 
benzene

>  <Synonyms>  (5) 
BENZENE
Benzen
Benzene
Benzine
Benzol
Bicarburet of hydrogen
Coal naphtha
Mineral naphtha
Phene
Pyrobenzol
Pyrobenzole
[6]annulene
benzene
benzole
cyclohexatriene
phenyl hydride

>  <Beilstein Registry Numbers>  (5) 
969212

>  <CAS Registry Numbers>  (5) 
71-43-2

>  <Gmelin Registry Numbers>  (5) 
1671

>  <HMDB Database Links>  (5) 
HMDB0001505

>  <KEGG COMPOUND Database Links>  (5) 
C01407

>  <PDBeChem Database Links>  (5) 
BNZ

>  <PubMed citation Links>  (5) 
18407866
15468289
19228219
17373369
18072742
15935818
14677922
12857942
11993966
23534829
23222815
23088855
8124204
18409691
21325737
11684179
6353911
16161967
18836923

>  <Reaxys Registry Numbers>  (5) 
969212

>  <UM-BBD compID Links>  (5) 
c0142

>  <Wikipedia Database Links>  (5) 
Benzene

>  <ACToR Database Links>  (5) 
71-43-2
27271-55-2
174973-66-1
26181-88-4

>  <ArrayExpressAtlas Database Links>  (5) 
E-GEOD-18858

>  <BKMS-react Database Links>  (5) 
1750
121990
9107

>  <BRENDA Database Links>  (5) 
2.4.1.19
1.1.1.1
1.1.3.6
1.10.3.2
1.11.2.1
1.14.12.3
1.14.12.10
1.14.12.11
1.14.12.12
1.14.12.18
1.14.13.7
1.14.13.25
1.14.13.236
1.14.13.244
1.14.14.11
1.14.14.94
2.4.1.92
3.1.1.1
3.1.1.8
3.1.1.20
3.1.1.23
3.1.1.74
3.1.3.8
3.2.1.1
3.2.1.B1
3.2.1.4
3.2.1.78
3.2.1.116
3.3.2.9
3.4.21.79
3.5.1.99
4.1.1.28
4.1.1.53
4.1.2.13
4.2.1.1
4.3.1.24
4.99.1.2
5.6.2.2

>  <BRENDALigand Database Links>  (5) 
1750
121990
9107

>  <BindingDB Database Links>  (5) 
50167939

>  <ChEMBL Database Links>  (5) 
CHEMBL277500

>  <CompTox Database Links>  (5) 
DTXSID3039242

>  <EnzymePortal Database Links>  (5) 
P0C619
A5W4F1
P0C618
A5W4F2
Q07944
Q07945

>  <GeneOntology Database Links>  (5) 
GO:1900996
GO:1901423
GO:1900997
GO:0018910

>  <IEDB Database Links>  (5) 
116867

>  <IntEnz Database Links>  (5) 
EC 1.14.12.3

>  <MetaboLights Database Links>  (5) 
MTBLS700
MTBLS867
MTBLS8677
MTBLS1757
MTBLS4012
MTBLS5423
MTBLS3129
MTBLS2406

>  <NMRShiftDB Database Links>  (5) 
7901

>  <PDB Database Links>  (5) 
181l
1a7z
1cp4
1l83
1l84
1swi
1xxj
220l
223l
227l
2yky
2z9g
3dmx
3guj
3hh4
4i7j
4w52
5jwt
6sy7

>  <Patent Database Links>  (5) 
EP1113000
EP1090920
EP1099744
EP1104764
EP1110966
EP1114668
EP1122252
EP1122253
EP1122257
EP1123918
EP1123927
EP1123928
EP1125907
EP1125931
EP1132373
EP1134218
EP1136477
EP1142587
EP1142877
EP1148059
EP1151994
EP1157704
EP1157989
EP1167346
EP1178035
EP1178036
EP1178037
EP1179341
EP1180512
EP1180517
EP1182195
EP1182203
EP1186604
EP1188733
EP1188747
EP1209147
EP1201656
EP1201661
EP1203766
EP1211240
EP1211253
EP1217001
EP1219294
EP1219612
EP1219625
EP1227089
EP1229010
EP1229012
EP1233013
EP1238970
EP1238971
EP1254895
EP1254898
EP1256575
EP1256576
EP1258252
EP1258473
EP0908452
EP0894797
EP0902020
EP0906783
EP0908460
EP0911320
EP0911338
EP0915092
EP0916675
EP0926136
EP0926138
EP0928791
EP0930075
EP0933360
EP0934924
EP0936216
EP0949242
EP0949262
EP0949301
EP0955301
EP0958861
EP0966963
EP0967205
EP0974587
EP0987254
EP1281707
EP1264707
EP1277737
EP1277754
EP1283039
EP1283199
EP1285917
EP1293503
EP1295866
EP1300396
EP1302464
EP1310488
EP1318148
EP1327629
EP1327633
EP1331005
EP1340750
EP1342723
EP1354587
EP1357103
EP1357110
EP1357111
EP1361220
EP1362601
EP1367055
EP1369129
EP1371655
EP1375468
EP1375472
EP1384718
EP1389618
EP1394156
EP1403258
EP1408090
EP1422213
EP1422228
EP1424328
EP1424329
EP1002873
EP0990647
EP0990661
EP0999204
EP1008296
EP1020190
EP1020445
EP1020448
EP1020451
EP1022026
EP1024138
EP1028113
EP1035120
EP1043312
EP1046635
EP1048666
EP1052238
EP1052261
EP1057815
EP1063224
EP1067103
EP1067109
EP1067123
EP1067128
EP1069127
EP1074556
EP1078926
EP1081133
EP1081144
EP1081146
EP1082280
EP1082295
EP1439174
EP1426375
EP1428813
EP1428818
EP1433479
EP1439187
EP1443020
EP1443047
EP1445257
EP1445258
EP1449580
EP1454899
EP1460069
EP1460073
EP1466625
EP1466904
EP1468684
EP1468988
US2006084658
US2006074092
US2006079526
US2006079536
US2006089353
US2006089386
US2006094767
US2006094774
US2006100192
US2006100193
US2006100197
US2006100229
US2006100421
US2006100443
US2006105435
US2006106032
US2006106041
US2006106046
US2006106073
US2006106086
US2006111368
US2006122176
US2006122236
US2006122269
US2006128680
US2006128693
US2006128703
US2006128706
US2006128786
US2006134034
US2006135545
US2006135557
US2006142293
US2006142300
US2006142324
US2006142343
US2006142370
US2006142612
US2006148789
US2006148830
US2006148889
US2006148890
US2006148902
US2006149059
US2006154970
US2006160847
US2006160864
US2006160894
US2006162095
US2006166986
US2006167042
US2006178359
US2006183730
US2006183738
US2006188915
US2007244096
US2007232653
US2007232682
US2007243132
US2007244161
US2007248560
US2007248614
US2007249663
US2007254364
US2007254886
US2007254915
US2007258912
US2007270478
US2007276042
US2007276043
US2008038276
US2008039643
US2008045522
US2008064731
US2008085534
US2008090789
US2008096917
US2008132683
US2008161351
US2008176942
US2008188468
US2008200535
US2008200558
US2008207584
US2008207603
US2008221018
US2008227808
US2008227809
US2008234229
US2008234316
US2008234323
US2008234382
US2008234388
US2008242855
US2008247991
US2008249091
US2008255128
US2008255169
US2008261947
US2008261963
US2008269215
US2008269231
US2008269237
US2008269240
US2008269283
US2008275017
US2008275069
US2008275074
US2008275112
US2008280910
US2008280961
US2008287490
EP1950232
EP1953140
EP1956009
EP1958631
EP1961745
WO2005049614
WO2005049568
WO2005049586
WO2005049594
WO2005051929
WO2005051974
WO2005054201
WO2005054209
WO2005054210
WO2005054228
WO2005054253
WO2005054429
WO2005056536
WO2005058843
WO2005058861
WO2005063680
WO2005063717
WO2005063741
WO2005067922
WO2005068457
WO2005068458
WO2005070914
WO2005073234
WO2005074933
WO2005075426
WO2005075462
WO2005075477
WO2005077927
WO2005077957
WO2005079195
WO2005082879
WO2005085225
WO2005085227
WO2005087776
WO2005090343
WO2005091752
WO2005092886
WO2005092896
WO2005095330
WO2005095351
WO2005095370
WO2005095377
WO2005095424
WO2005100330
WO2005100335
WO2005101989
WO2005104663
WO2005105762
WO2005105802
WO2005107742
WO2005108338
EP1970373
EP1961753
EP1961754
EP1964836
EP1975162
EP1988076
EP1988079
WO2006047631
WO2006046914
WO2006046915
WO2006047196
WO2006050458
WO2006055321
WO2006057845
WO2006058699
WO2006059346
WO2006059347
WO2006064304
WO2006067584
WO2006069807
WO2006070325
WO2006071353
WO2006071354
WO2006071868
WO2006073963
WO2006074264
WO2006077168
WO2006077364
WO2006077365
WO2006077366
WO2006077367
WO2006078317
WO2006080025
WO2006080577
WO2006082597
WO2006083924
WO2006084186
WO2006085332
WO2006087732
WO2006089872
WO2006089927
WO2006090270
WO2006092032
WO2006092417
WO2006094763
WO2006095362
WO2006097341
WO2006097472
WO2006100226
WO2006107644
WO2006107753
WO2006109048
WO2006109323
WO2006110219
US2005165114
US2005171083
US2005171094
US2005176710
US2005182040
US2005182045
US2005182111
US2005182123
WO2008131932
WO2008132748
WO2008134354
WO2008135488
WO2008141140
WO2008141145
WO2008142528
WO2008144062
WO2008144266
WO2008144865
WO2008145172
WO2008146172
WO2008147635
WO2008147638
WO2008147639
WO2008149204
WO2008153289
WO2008154484
WO2008155613
WO2008156205
WO2008156443
EP1555264
GB2345486
WO2005016862
GB2224028
EP1626044
EP0979823
EP1167373
EP0774463
EP0778273
EP0780363
EP0780391
EP0781775
EP0784051
EP0787718
EP0787733
EP0791597
EP0791849
EP0796845
EP0805190
EP0807632
EP0812845
EP0818445
EP0818446
EP0828183
EP0837063
EP0854382
EP0855390
EP1468999
EP1471057
EP1475369
EP1475372
EP1477175
EP1477489
EP1477490
EP1484325
EP1484327
EP1486495
EP1488853
EP1489068
EP1491531
EP1500643
EP1500655
EP1506964
EP1508561
EP1514844
EP1516597
EP1527783
EP1533300
EP1535909
EP1541149
EP1541582
EP1541692
EP1544199
EP1547996
EP1550659
EP1550662
EP1550725
EP1553075
EP1555266
EP1555267
EP1560070
EP1574509
EP1577300
EP1577310
EP1577331
EP1582522
EP1582523
US2003013772
US2003018056
US2003022934
US2003028047
US2003032672
US2003032834
US2003044885
US2003065037
US2003068379
US2003069288
US2003096028
US2003096827
US2003096847
US2003096876
US2003100512
US2003108892
US2003111087
US2003114387
US2003114508
US2003147845
US2003149083
US2003149108
US2003153031
US2003153559
US2003153579
US2003153789
US2003158127
US2003165443
US2003166481
US2003166693
US2003195223
US2003203902
US2003213940
US2003236406
US2004002480
US2004002491
US2004002521
US2004006056
US2004019119
US2004023938
US2004023957
US2004030159
US2004034217
US2004048904
US2004049065
EP1995227
EP1995246
EP1997805
EP1997813
EP2000465
EP2003135
EP2006284
EP2006287
GB1474364
GB1492073
GB2014030
GB2020975
GB2021121
GB2194945
GB2208601
GB2211517
GB2212048
GB2212804
GB2216124
GB2225781
GB2227744
GB2228734
GB2230527
GB2234748
GB2249094
GB2262096
GB2285805
GB2286395
GB2297749
GB2337752
GB2355457
GB2369616
GB2386891
US2001001332
US2001031766
US2001039279
US2001041359
US2001046975
US2001056088
US2002016365
US2002032189
WO2006116007
WO2006110221
WO2006110520
WO2006110893
WO2006114676
US2005192292
US2005182138
US2005187238
US2005191643
US2005197362
US2005208534
US2005209166
US2005214249
US2005214810
US2005222118
US2005227240
US2005227335
US2005232812
US2005234035
US2005234053
US2005245527
US2005245734
US2005250814
US2005260126
US2005261327
US2005261334
US2005265961
US2005267137
US2005272699
US2005277665
US2005277773
US2005282862
US2005283007
US2005288263
US2005288271
US2006004012
US2006004037
US2006004203
US2006009446
US2006009490
US2006009532
US2006014734
US2006014739
US2006014809
US2006019951
US2006025417
US2006025434
US2006025461
US2006030713
US2006040970
US2006051846
US2006052361
US2006052374
US2006052403
US2006058301
US2006058396
US2006058554
US2006063767
US2006069093
US2006069137
US2006223830
US2006189653
US2006194859
US2006194869
US2006229303
US2006258657
US2006258687
US2006258722
US2006264434
US2006269958
US2006270721
US2006270724
US2006270733
US2006276465
US2006281747
US2006281789
US2006287329
US2006293543
US2007011824
US2007015943
US2007037979
US2007043002
US2007043035
US2007044250
US2007066617
US2007122506
US2007123572
US2007142427
US2007149577
US2007155813
US2007167442
US2007167444
US2007173498
US2007174977
US2007179163
US2007179181
US2007184013
US2007185101
US2007185116
US2007185123
US2007185176
US2007185177
US2007185216
US2007189998
US2007189999
US2007191293
US2007191318
US2007197510
US2007197594
US2007203143
US2007203154
US2007208036
US2007213316
US2007213397
US2007219141
US2007219182
US2007225296
EP1584373
EP1589002
EP1589089
EP1591440
EP1593673
EP1593680
EP1593681
EP1595867
EP1598049
EP1598067
EP1598344
EP1600440
EP1600443
EP1602374
US2008293749
US2008293137
US2008293685
US2008293701
US2008293764
WO2005000233
WO2005002293
WO2005002519
WO2005002523
WO2005003136
WO2005004810
WO2005005402
WO2005005956
WO2005010028
WO2005011686
WO2005012579
WO2005014549
WO2005014568
WO2005016882
WO2005016908
WO2005019204
WO2005019211
WO2005019226
WO2005021506
WO2005021522
WO2005021549
WO2005023762
WO2005025504
WO2005026095
WO2005028409
WO2005030140
WO2005030695
WO2005030711
WO2005030772
WO2005030777
WO2005032488
WO2005035517
WO2005035520
WO2005037271
WO2005037821
WO2005037823
WO2005037826
WO2005040104
WO2005040123
WO2005040134
WO2005040145
WO2005040152
WO2005041664
WO2005044266
WO2005044267
WO2005047249
WO2005049567
US2004077725
US2004054204
US2004059120
US2004071654
US2004077726
US2004077867
US2004082585
US2004087650
US2004092557
WO2006120639
WO2006117653
WO2006117762
WO2006120178
WO2006122072
WO2006125592
WO2006127945
WO2006131465
WO2006131782
WO2006132625
WO2006133332
WO2006133397
WO2006135640
WO2006137769
WO2007087220
WO2007089034
WO2007091106
WO2007091107
WO2007092213
WO2007094886
WO2007097593
WO2007098090
WO2007099117
WO2007100851
WO2007106063
WO2007106597
WO2007111514
WO2007113256
WO2007113276
WO2007113650
WO2007114762
WO2007115232
WO2007117559
WO2007120485
WO2007121352
WO2007121482
WO2007123718
WO2007123892
WO2007124494
WO2007125325
WO2007127635
WO2007135463
WO2007136439
WO2008107911
WO2008108639
WO2008111794
WO2008114275
WO2008117079
WO2008117305
WO2008125207
WO2008130970
WO2008131000
US2004092598
US2004110743
US2004122040
US2004127487
US2004138211
US2004138271
US2004138502
US2004162341
US2004171881
US2004191796
US2004198727
US2004198830
US2004204596
US2004204617
US2004209925
US2004220237
US2004220425
US2004229869
US2004235023
US2004235961
US2004241237
EP1767221
EP1770089
EP1772141
EP1777225
EP1782834
EP1785134
EP1785421
EP1790637
EP1795529
EP1797871
EP1798226
EP1803802
EP1813620
EP1818336
EP1826208
EP1847533
EP1849465
EP1849773
EP1857817
EP1864976
EP1872942
EP1876179
EP1878724
EP1886994
EP1889622
EP1889839
EP1892238
EP1892240
EP1897866
EP1903039
EP1903068
EP1914235
EP1914256
EP1916251
EP1918293
EP1921062
EP1923387
EP1923388
EP1932833
EP1932836
EP1939175
EP1939199
EP1941946
EP1944308
EP1604975
EP1612208
EP1612211
EP1614672
EP1616957
EP1623970
EP1630152
EP1632231
EP1632291
EP1632477
EP1632488
EP1637520
EP1637531
EP1640367
EP1640369
EP1642594
EP1650194
EP1652892
EP1659115
EP1661879
EP1661881
EP1661889
EP1661898
EP1666455
EP1666468
EP1666483
EP1666970
EP1672961
EP1674468
EP1679308
EP1679309
EP1683797
EP1686123
EP1695960
EP1695968
EP1695971
EP1700848
EP1704856
EP1705167
EP1712227
EP1717230
EP1719771
EP1719773
EP1724264
EP1724272
EP1731512
EP1731522
EP1736157
EP1741693
EP1741701
EP1742052
US2004261190
US2004248919
US2004258782
US2004259875
US2004267011
US2005004132
US2005014795
US2005014810
US2005014812
US2005014826
US2005020566
US2005026940
US2005026978
US2005032147
US2005032771
US2005032787
US2005032788
US2005032865
US2005033070
US2005038035
US2005038060
US2005043351
US2005049245
US2005049275
US2005049286
US2005049295
US2005049405
US2005054535
US2005054851
US2005059653
WO2006036880
WO2006036949
WO2006038001
WO2006039212
WO2006041830
WO2006042150
WO2006043075
WO2006043090
WO2006044449
WO2006044504
WO2006046043
EP1752452
EP1752455
EP1757290
EP1757582
EP1757594
EP1760071
EP1760079
US2005070597
US2005059663
US2005059665
US2005070485
US2005075342
US2005080067
US2005080072
US2005080206
US2005085424
US2005085476
US2005085504
US2005085515
US2005085555
US2005090522
US2005096331
US2005096359
US2005096363
US2005096467
US2005097813
US2005101627
US2005107357
US2005107426
US2005107432
US2005107454
US2005113399
US2005113404
US2005113420
US2005119304
US2005124619
US2005124642
US2005124682
US2005130282
US2005131002
US2005131019
US2005136007
US2005137246
US2005143385
US2005148570
US2005148572
US2005148583
US2005148608
US2005148651
US2005154199
US2005159484
US2005165019
US2002082266
US2002035114
US2002037333
US2002058713
US2002086902
US2002099099
US2002102612
US2002103168
US2002107234
US2002120007
US2002156113
US2002165206
US2002193443
US2003008884
EP0856515
EP0860432
EP0867434
EP0867753
EP0875506
EP0882710
EP0882715
EP0885871
EP0885894
EP0887340
EP0889037
EP0894792
WO2005108347
WO2005110980
WO2005110998
WO2005111050
WO2005112644
WO2005112933
WO2005113533
WO2005115361
WO2005115977
WO2005115984
WO2005118550
WO2005120186
WO2005121143
WO2005120498
WO2005121115
WO2005121129
WO2005123684
WO2006000314
WO2006001619
WO2006001752
WO2006002099
WO2006005980
WO2006008251
WO2006008562
WO2006010423
WO2006010775
WO2006010965
WO2006016376
WO2006017353
WO2006018708
WO2006019202
WO2006020156
WO2006021801
WO2006022825
WO2006024034
WO2006025859
WO2006028962
WO2006029209
WO2006029515
WO2006030299
WO2006030977
WO2006031782
WO2006032879
WO2006035459
WO2006035997

>  <PubChem Database Links>  (5) 
CID: 241
SID: 8144665

>  <Reactome Database Links>  (5) 
R-HSA-76416

>  <Rhea Database Links>  (5) 
RHEA:13813

>  <SABIO-RK Database Links>  (5) 
12437

>  <SureChEMBL Database Links>  (5) 
SCHEMBL194

>  <UniProt Database Links>  (5) 
A5W4F2
P0C618
A5W4F1
P0C619
P08086
P08087
P08088
Q6F4M7
Q9WXE6
P42535
Q8KIY1
E0X9C7
Q5PXQ6
P32021
Q04828
P52895
Q9TV68
Q7JK39
Q9TV69
Q07946
Q07947
Q07944
Q07945
Q95JH4

>  <Last Modified>  (5) 
24 May 2023

$$$$
ChEBI
     RDKit          2D

 10  9  0  0  1  0  0  0  0  0999 V2000
    6.6714   -3.3401    0.0000 C   0  0  0  0  0  0  0  0  0  0  0  0
    5.9622   -3.7617    0.0000 C   0  0  0  0  0  0  0  0  0  0  0  0
    5.2422   -3.3520    0.0000 C   0  0  0  0  0  0  0  0  0  0  0  0
    4.5330   -3.7735    0.0000 C   0  0  0  0  0  0  0  0  0  0  0  0
    3.8130   -3.3639    0.0000 C   0  0  0  0  0  0  0  0  0  0  0  0
    7.3913   -3.7497    0.0000 O   0  0  0  0  0  0  0  0  0  0  0  0
    5.9622   -4.5867    0.0000 O   0  0  0  0  0  0  0  0  0  0  0  0
    5.2422   -2.5270    0.0000 O   0  0  0  0  0  0  0  0  0  0  0  0
    4.5330   -4.5985    0.0000 O   0  0  0  0  0  0  0  0  0  0  0  0
    3.1038   -3.7854    0.0000 O   0  0  0  0  0  0  0  0  0  0  0  0
  6  1  2  0
  2  1  1  0
  2  7  1  1
  3  2  1  0
  3  8  1  6
  4  3  1  0
  4  9  1  6
  5  4  1  0
 10  5  1  0
M  END
>  <ChEBI ID>  (6) 
CHEBI:16789

>  <ChEBI Name>  (6) 
aldehydo-D-lyxose

>  <Star>  (6) 
3

>  <Definition>  (6) 
A D-lyxose in open-chain aldehyde form.

>  <Secondary ChEBI ID>  (6) 
CHEBI:12995
CHEBI:4204
CHEBI:57898
CHEBI:21047

>  <SMILES>  (6) 
OC[C@@H](O)[C@H](O)[C@H](O)C=O

>  <InChIKey>  (6) 
PYMYPHUHKUWMLA-UOWFLXDJSA-N

>  <InChI>  (6) 
InChI=1S/C5H10O5/c6-1-3(8)5(10)4(9)2-7/h1,3-5,7-10H,2H2/t3-,4-,5-/m1/s1

>  <Formulae>  (6) 
C5H10O5

>  <Charge>  (6) 
0

>  <Mass>  (6) 
150.12990

>  <Monoisotopic Mass>  (6) 
150.05282

>  <IUPAC Names>  (6) 
D-lyxo-pentose
D-lyxose

>  <Synonyms>  (6) 
D-Lyx
D-Lyxose
D-lyxose
WURCS=2.0/1,1,0/[o112h]/1/

>  <CAS Registry Numbers>  (6) 
1114-34-7

>  <GlyGen Database Links>  (6) 
G88438YV

>  <GlyTouCan Database Links>  (6) 
G88438YV

>  <KEGG COMPOUND Database Links>  (6) 
C00476

>  <ACToR Database Links>  (6) 
65-42-9

>  <EnzymePortal Database Links>  (6) 
A3E7Z6

>  <IntEnz Database Links>  (6) 
EC 5.3.1.15

>  <MetaboLights Database Links>  (6) 
MTBLS1693

>  <NMRShiftDB Database Links>  (6) 
60034006

>  <Patent Database Links>  (6) 
EP1887017
US2007248556
US2007265210
EP1870102
EP1894577
EP1923060
US2002016300
US2003017995
US2004082807
US2004097602
US2005037396
US2005171028
US2005267169
US2005277599
US2006079713
US2006280688
US2007226916
US2008280994
WO2005020881
WO2007112574

>  <PubChem Database Links>  (6) 
CID: 65550
SID: 8143647

>  <Rhea Database Links>  (6) 
RHEA:14201

>  <SABIO-RK Database Links>  (6) 
13766
1955
7818
7781
7242
7239
11179
1615
12688
793

>  <SureChEMBL Database Links>  (6) 
SCHEMBL36425

>  <UniProt Database Links>  (6) 
P96578
A3E7Z6

>  <Last Modified>  (6) 
07 Apr 2021

$$$$

     RDKit          2D

 11 10  0  0  1  0  0  0  0  0999 V2000
   10.6316  -21.2448    0.0000 C   0  0  0  0  0  0  0  0  0  0  0  0
   10.6316  -20.2448    0.0000 O   0  0  0  0  0  0  0  0  0  0  0  0
    9.7655  -21.7448    0.0000 C   0  0  0  0  0  0  0  0  0  0  0  0
    9.7655  -22.7448    0.0000 N   0  0  0  0  0  0  0  0  0  0  0  0
    8.8996  -21.2448    0.0000 C   0  0  0  0  0  0  0  0  0  0  0  0
    8.0335  -21.7448    0.0000 C   0  0  0  0  0  0  0  0  0  0  0  0
    7.1675  -21.2448    0.0000 O   0  0  0  0  0  0  0  0  0  0  0  0
    8.0335  -22.7448    0.0000 O   0  0  0  0  0  0  0  0  0  0  0  0
    8.8996  -23.2448    0.0000 *   0  0  0  0  0  0  0  0  0  0  0  0
   11.4977  -21.7447    0.0000 *   0  0  0  0  0  0  0  0  0  0  0  0
    8.8996  -20.2448    0.0000 O   0  0  0  0  0  0  0  0  0  0  0  0
  1 10  1  0
  2  1  2  0
  3  1  1  0
  3  4  1  1
  5  3  1  0
  6  5  1  0
  7  6  1  0
  8  6  2  0
  9  4  1  0
  5 11  1  0
M  CHG  1   7  -1
V    9 *
V   10 *
M  END
>  <ChEBI ID>  (7) 
CHEBI:17427

>  <ChEBI Name>  (7) 
3-hydroxy-L-aspartate residue

>  <Star>  (7) 
3

>  <Definition>  (7) 
An anionic amino-acid residue resulting from the deprotonation of the carboxy group of a 3-hydroxy-L-aspartic acid residue.

>  <Secondary ChEBI ID>  (7) 
CHEBI:14754
CHEBI:75591
CHEBI:7991

>  <SMILES>  (7) 
C(*)(=O)[C@@H](N*)C(C([O-])=O)O

>  <Formulae>  (7) 
C4H4NO4

>  <Charge>  (7) 
-1

>  <Mass>  (7) 
130.079

>  <Monoisotopic Mass>  (7) 
130.01403

>  <Synonyms>  (7) 
(2S)-3-hydroxyaspartate residue
3-hydroxy-L-aspartate residue
Peptide 3-hydroxy-L-aspartate

>  <KEGG COMPOUND Database Links>  (7) 
C03957

>  <MetaCyc Database Links>  (7) 
Peptide-3-hydroxy-L-Aspartates

>  <EnzymePortal Database Links>  (7) 
Q8BSY0
Q12797
Q28056

>  <PubChem Database Links>  (7) 
SID: 375739122
SID: 164175073

>  <Rhea Database Links>  (7) 
RHEA:11508

>  <UniProt Database Links>  (7) 
Q28056
Q12797
Q8BSY0

>  <Last Modified>  (7) 
31 Aug 2018

$$$$

     RDKit          2D

 11 10  0  0  1  0  0  0  0  0999 V2000
    1.4289    0.2357    0.0000 C   0  0  0  0  0  0  0  0  0  0  0  0
    0.7145   -0.1768    0.0000 C   0  0  0  0  0  0  0  0  0  0  0  0
   -1.4289    0.2357    0.0000 S   0  0  0  0  0  0  0  0  0  0  0  0
    0.0000    0.2357    0.0000 C   0  0  0  0  0  0  0  0  0  0  0  0
   -0.7145   -0.1768    0.0000 C   0  0  0  0  0  0  0  0  0  0  0  0
   -2.1434   -0.1768    0.0000 C   0  0  0  0  0  0  0  0  0  0  0  0
    1.4289    1.0607    0.0000 O   0  0  0  0  0  0  0  0  0  0  0  0
   -1.4289    1.0607    0.0000 O   0  0  0  0  0  0  0  0  0  0  0  0
    0.7145   -1.0018    0.0000 N   0  0  0  0  0  0  0  0  0  0  0  0
    0.0000   -1.4143    0.0000 *   0  0  0  0  0  0  0  0  0  0  0  0
    2.1434   -0.1768    0.0000 *   0  0  0  0  0  0  0  0  0  0  0  0
 11  1  1  0
  1  7  2  0
  1  2  1  0
  2  9  1  0
  3  8  2  0
  2  4  1  1
  4  5  1  0
  3  5  1  0
  3  6  1  1
  9 10  1  0
V   10 *
V   11 *
M  END
>  <ChEBI ID>  (8) 
CHEBI:45764

>  <ChEBI Name>  (8) 
L-methionine (R)-S-oxide residue

>  <Star>  (8) 
3

>  <Secondary ChEBI ID>  (8) 
CHEBI:45761

>  <SMILES>  (8) 
C(*)(=O)[C@@H](N*)CC[S@](=O)C

>  <Formulae>  (8) 
C5H9NO2S

>  <Charge>  (8) 
0

>  <Mass>  (8) 
147.19650

>  <Monoisotopic Mass>  (8) 
147.03540

>  <IUPAC Names>  (8) 
(2S)-2-amino-4-[(R)-methylsulfinyl]butanoic acid residue

>  <Synonyms>  (8) 
L-methionine (R)-S-oxide residue
METHIONINE SULFOXIDE

>  <PDBeChem Database Links>  (8) 
SME

>  <EnzymePortal Database Links>  (8) 
Q2YY44
A7X2A9
A6U1P3
Q2FH15
P0A088
A5ISV4
A6QGX4
P65451
P99065
Q6GGY4
Q6G9D8
A8Z402
P0A087
B9DNY9
Q5HPB4
Q8CSK6
Q4L6D3
Q49XN4
Q3K1F5
Q8E5Q9
Q8E026
C0M8H8
Q62JM6
A1V4U8
Q3JRF0
Q63V23
Q39FG2
Q2SWN9
A4JEZ1
B8GY23
Q9A6B1
B3PK10
Q1QXV3
Q97IU0
Q9ZNJ9
Q0TPZ6
Q8XJZ6
Q0SSL4
Q47EU6
Q9RUK6
Q72EK2
A7ZMP8
B7USF8
B7MAY9
B7L6Q3
P0A748
B5YQ71
B7NSZ8
B7MVQ9
B7M1J2
C4ZZD4
B1XGN8
A8A0X0
Q0TH50
P0A747
B1IPF3
P0A746
B7N5B4
B6IBJ9
B1LDV3
P0DM32
E6ESW1
Q6D4P7
B2VJ36
B8GMG5
C5CNS9
A5F6R2
Q9KQK0
C3LNU9
Q87MS5
Q8D849
Q7MMC4
B2I8Y4
Q9PF29
Q87AJ9
A1JQG8
A7FI81
Q1C7U0
B2K3R4
Q8ZEK7
A9R9C4
Q1CJ76
A4TJB4
Q66AP6
B1JLG2
P25566
A2SGN7
O26807
P47686
P75129
Q9CMB1
C6DGV8
Q7N400
A1VNB7
Q12AE4
Q48FR2
A6V3R3
B7UUZ9
Q02NZ0
Q9I016
Q1ID16
Q4K8U5
C3K735
A4XVB1
A5W756
Q3K935
B0KUQ0
Q88LQ6
B1J4W5
Q885Q1
Q4ZQC6
Q8XYL1
Q21LK2
B5F860
A9MFH4
B5FJF9
B4TGC8
B4T3Y1
A9N292
B4TUA8
P65450
P65449
A8GFD8
Q321R4
Q32GC7
Q0T4Y5
Q83L66
Q3Z2B6
Q99ZV6
P0DC42
Q5XCD0
Q8P172
P0DC43
C0MDV8
A5GQT3
C5BR54
Q8DJK9
Q3SJU1
B4RUW0
B0VC45
Q8UGX7
Q0A706
C1DRM1
A7Z5S1
Q9KCX2
Q65ID2
A8FEA3
Q5WH73
P54155
Q89EM9
P65447
P65448
B1YRN6
Q1BH71
B1JTT6
A0K833
B4EBK9
Q0BEH0
A9AJS6
A2SBI6
B7LQ21
Q2SJP9
A4G5V5
B5XS71
A6T7R0
Q9CJ17
A2RHS0
Q032Q9
Q88W33
Q1WVT3
Q6ADJ8
Q72NN2
Q8F7W8
Q92AE9
C1KWF8
Q71YF7
B8DDP3
Q8Y641
A0AJW4
B1HZH4
Q46EH1
Q8PWF5
P0A3Q9
P0A3R0
P65443
P65444
Q9AL99
Q93KF3
P86890
P45213
Q9ZMK8
O25011
P14930
Q9JWM8
Q9K1N8
Q9LAM9
Q99YT1
P0DC40
Q5XAX5
Q8P046
P0DC41
O83641
Q9KLX6
Q9C8M2
Q0DC89
Q92RA4
Q9C5C8
Q92Y46
Q9M0Z6
Q6AUK5
Q9M0Z5
Q9ZS91
Q10L32
Q8GWF4
Q8VY86
O49707
Q84JT6
B0BYW4
Q6FAL8
B7H3X2
B7I415
B2HYT2
B0VR86
A3M4Q3

>  <PubChem Database Links>  (8) 
SID: 49693444

>  <Rhea Database Links>  (8) 
RHEA:51308
RHEA:51296
RHEA:24722
RHEA:24164
RHEA:49676

>  <UniProt Database Links>  (8) 
Q7RTP6
Q8CJ19
Q86BA1
F1MH07
E7F9T0
Q8TDZ2
Q8VDP3
D3ZBP4
F1MF74
O94851
Q8BML1
D4A1F2
F6QZ15
G3MWR8
O34974
P0A3Q9
P0A3R0
P65443
P65444
Q802G6
P0A081
P0A082
Q5VPG8
Q9SL43
Q9KLX6
B7H0P7
C0RMK6
A9MCZ5
Q0SPW9
Q899M3
Q0T9G6
A8A7X5
Q38XB4
Q6AG94
Q9D6Y7
O26635
A6Q418
Q3SU08
Q1Q8I3
Q4FQB0
Q8ZK71
Q09859
Q1JI75
Q1JN29
Q4UR77
B0RUE7
Q0A706
A1E952
Q5R869
Q8UGX7
Q8XJZ6
Q0TPZ6
Q0SSL4
Q9CJ17
A6T7R0
A2RHS0
A4XVB1
C3K735
P99065
P65451
Q6GGY4
Q6G9J8
Q6GH44
Q9AL99
Q93KF3
B2I399
B7I4T7
Q8YDE7
A5VVX1
Q8FLU6
Q6NEL2
Q8FAG4
B1ISY2
Q055M2
Q04PP8
B3PND9
P0A5L1
Q5YUS0
A6WYH5
Q8Y1C6
A5WC53
A8G8X6
B2TZL3
Q48UX4
A2RG28
Q8VS50
Q8PCA6
B4RUW0
Q52KJ8
Q92RA4
C1DRM1
Q9RUK6
Q47EU6
Q032Q9
Q88W33
Q3K935
A5W756
A8Z402
Q6G9D8
P0A087
P0A083
P86890
B0VL72
A9WW77
A4QHY3
P0A744
A1KEV7
Q93S39
Q923M1
Q03W54
Q31TF9
P0DC39
Q2NZR7
Q9C5C8
Q6NW52
Q9KCX2
A7Z5S1
Q65ID2
A7ZMP8
Q72EK2
Q6ADJ8
Q1WVT3
Q72NN2
Q88LQ6
B0KUQ0
B9DNY9
P72622
Q9LY15
P45213
A3M1W6
B0V4P7
A8FL58
Q8FUZ0
Q8NLL5
C4LG69
B6I2D2
B7NGF6
Q92AE8
C1KWF9
P47648
C1AJG2
Q9CN40
Q6D151
Q2RRT3
B6IS04
Q328B8
Q0SXG5
C0MCD1
B5XK66
B2SQI9
B2I4P8
Q5WH73
Q9Y3D2
Q78J03
A8FEA3
P54155
B7MAY9
B7USF8
Q8F7W8
Q92AE9
Q885Q1
B1J4W5
Q9A9E9
Q9ZMK8
C1F1B8
A7H4H5
A7MM56
Q9APY4
B1LRA3
A4W5V5
B8DDP2
Q71YF6
A4T413
A1AWS4
Q21JK7
P0A745
C6DDM6
Q3YUC8
B9DRF3
B0U2B7
Q9PC45
Q92Y46
Q4FZX5
Q89EM9
P65447
B7L6Q3
P0A748
C1KWF8
Q71YF7
Q8XYL1
Q4ZQC6
Q9CE42
Q8YWD8
O25011
Q7D255
A6TUE9
A1VYZ7
Q9PHN0
B7K079
B2VHZ5
Q8Y640
Q9CCZ3
B8ZTJ5
Q4FP80
Q7MYW1
B5F3D4
P54153
Q97Y45
Q4J9L3
Q87D27
Q9M0Z6
Q8IXL7
B1YRN6
P65448
B5YQ71
B7NSZ8
Q8Y641
B8DDP3
A0AJW4
B5F860
Q21LK2
P14930
A1R7D2
Q98DV6
Q5HVD4
Q7NVL7
Q9ZEQ8
Q9RTB6
B7LMP0
P54152
Q2W5W8
A0AJW5
B2HLR5
Q73U14
Q6L2S4
Q6LV65
A8M3K6
A9MEZ2
Q746G0
Q53W34
P40029
A1JIU0
Q6AUK5
Q5HG58
Q8BU85
B1JTT6
Q1BH71
B7MVQ9
B7M1J2
Q46EH1
B1HZH4
Q8PWF5
B5FJF9
A9MFH4
Q92LI5
Q7UJI2
Q9JWM8
A0JXQ4
B8HA70
A5CQY7
Q551H3
A8L177
Q0ATD8
Q8EVK2
A4SWL6
Q57GH3
Q8E434
Q3K013
Q9AJF7
A7FMV2
Q9M0Z5
Q5R930
B4EBK9
A0K833
C4ZZD4
B1XGN8
A2SGN7
B4T3Y1
B4TGC8
P0A086
Q9K1N8
C1DGW5
A8IPQ8
B0RBB1
Q97MV3
A7ZV98
P08761
Q39Z11
Q747V4
Q12TP4
Q8TQV6
P75188
Q98PE5
B7V3B1
Q48CJ2
B5FSB9
B5R0T7
Q82I51
Q8DYH1
Q119G2
B1AIS8
B2K2M6
Q1CBX8
Q9ZS91
A9AJS6
Q0BEH0
A8A0X0
P47686
O26807
P75129
B4TUA8
A9N292
Q7XUP7
P65445
P65446
Q9LAM9
A7Z5S2
Q8DJK9
A7FUX9
Q0BPD5
Q602T2
B7UQN3
A3Q7V7
Q02EZ9
B5R9G7
Q9EWF7
Q9PQK2
Q10L32
Q8ZB94
Q8GWF4
Q62JM6
A2SBI6
P0A747
Q0TH50
Q6D4P7
Q9CMB1
P65450
P65449
Q8CSK6
Q5HPB4
Q4L6D3
Q7XUP6
Q9FKF7
Q6GGY3
Q6G9D7
Q9KAN8
Q65ID1
C3KXI0
Q99YT1
A5I348
B7MLN1
B7LCT1
Q9HQG0
B0R518
Q2FQ35
A4FYX5
Q1B1N8
A1UNG1
Q9HUF1
Q1I3L0
B4T3H1
B4TFF2
C0MBS9
B4U465
A5CWI5
B5ZB99
A9R574
Q1CEI4
Q8VY86
O49707
Q3JRF0
A1V4U8
P0A746
B1IPF3
Q7N400
C6DGV8
A8GFD8
Q321R4
Q3K1F5
Q49XN4
Q8E5Q9
B8GMG5
Q3SJU1
A1JQG8
Q87AJ9
A7FI81
Q9CFC8
Q9A9I6
P0A085
P0DC40
A8FEA4
C1FPF1
Q8XCG3
B5Z3H5
Q7VI69
Q18J40
A9AB97
A6VFD6
O69761
Q5PJ81
A5TYL2
A9N540
B1W2P8
A5F587
A4TRL2
Q66F89
Q84JT6
B0BYW4
Q39FG2
Q63V23
B6IBJ9
B7N5B4
Q12AE4
A1VNB7
Q32GC7
Q0T4Y5
C0M8H8
Q8E026
Q99ZV6
A5F6R2
C5CNS9
Q1C7U0
B2K3R4
Q8YXZ4
P72800
Q9LY14
Q5XAX5
P54154
P54149
A7GEN6
B1IMT7
B7NUD2
Q9UJ68
Q8PUD6
P9WJM5
P9WJM4
A4XPS6
B0KJ25
C0Q6H8
Q8DSY4
Q9A149
C3LRL2
Q9KP30
B1JML1
Q6FAL8
B7H3X2
A4JEZ1
Q2SWN9
P0DM32
B1LDV3
Q48FR2
A6V3R3
Q83L66
Q3Z2B6
P0DC42
Q5XCD0
C3LNU9
Q9KQK0
Q8ZEK7
A9R9C4
Q92SY7
Q98JV5
Q92Y45
Q8P046
P0DC41
B1KU02
Q0TM63
B7MTA1
P54151
B7M9I1
B5Y2Y3
A5VKT1
A3CUG3
Q6LYY1
A1TH24
A0PWH2
Q88QZ8
B1JE82
B4TT49
B5BKM8
P0DC38
Q8DE84
Q87SW6
Q9C8M2
B7I415
B2HYT2
Q9A6B1
B8GY23
B2VJ36
E6ESW1
B7LQ21
B7UUZ9
Q02NZ0
A7X2A9
A6U1P3
P0DC43
Q8P172
C0MDV8
Q8D849
Q87MS5
Q1CJ76
A4TJB4
Q7UJK0
P54150
O83641
B2SC53
Q2YJM1
Q8XH97
C4ZR95
Q1WU33
B8IJD1
Q3IUS0
Q88AI5
Q8Z150
Q5XDH1
Q8P272
Q8PNY8
B0VR86
Q3MHL9
Q9NZV6
A3M4Q3
B3PK10
Q1QXV3
Q2SJP9
Q9I016
Q1ID16
P0A088
Q2FH15
A5ISV4
C5BR54
A5GQT3
B2I8Y4
Q7MMC4
Q66AP6
P0A084
Q336R9
Q576P8
A9KPX7
B1XDW8
Q9SEC2
B0UCG5
B9LA36
Q4ZM24
A4X3E5
Q1JD56
Q3BX45
Q9JLC3
Q0DC89
B0VC45
Q97IU0
Q9ZNJ9
B5XS71
A4G5V5
Q4K8U5
Q2YY44
A6QGX4
Q9PF29
B1JLG2
P76270
P49055
P68139
P53479
P68133
P68134
P68264
P53478
P10981
P53505
P83967
P83968
P53506
P62739
P08023
P62736
P41339
Q98972
P68137
Q5R9Q5
P68136
P62737
P62740
P62738
Q7ZVI7
P68142
P53483
P41341
Q7ZVF9
P53485
P53486
Q562R1
Q8BFZ3
Q9BYX7
Q0PGG4
P60712
P84336
O18840
Q71FK5
P84856
P49871
O16808
Q11212
P60706
Q76N69
P48975
P83751
P83750
P60708
P60709
Q4R561
Q711N9
P60710
P68143
O93400
Q6NVA9
Q3ZC07
P68034
P68032
P79818
Q5R1X3
Q6QAQ1
Q5R6G0
P29751
P60711
O42161
P60713
Q91ZK5
Q4L0Y2
P60707
P15475
P68033
P68035
P53480
P04751
Q6P640
P49128
P18600
P83969
P07836
P63256
P63258
Q5ZMQ2
P63261
P63260
Q5JAK2
P10987
P63259
Q8JJB8
P63257
A2BDB0
Q6P378
P18601
P45885
P07837
P02572
P10995
P20399
Q25010
P84184
P45886
Q5E9B5
P63270
P63267
P68140
P53482
Q90X97
P68138
P04829
P53501
P41340
P04752
P63268
P63269
Q6P8G3
P18603
P84183
P02574
P84185
P45887
P58916
A3N3C8
B3GZ85
B0BT06
P58770
A6VQE0
B8J9Q0
B4UGL0
P0A4R0
P0A4R1
Q2IGN2
Q62G98
Q63Q46
Q9PIC3
P36088
P0A182
P09936
P25566
P76112
Q9YGP1
A7MNQ9
Q9RRF6
B5YSJ7
A7ZN92
B7USY1
B7MCM4
B7L8Y8
Q8XB74
Q9A4T2
B0SVB3
Q7NZY0
O32169
O32168
O32167
Q9SGS4
Q8ZAW9
C4ZQP1
B2VGX7
B4TX85
P67348
Q665F0
A8A1H0
B7LRM8
Q8XV50
B3PWV0
Q2K9I8
Q92QE7
P67347
Q5FQ05
C3MB06
A8GK68
Q7VKI8
Q5LNE0
B5F7N7
B2TWL4
Q32HK5
A9MNV7
Q3Z0L8
A1ACB6
Q0I4C9
B0UUL6
Q57J91
Q8FGI7
Q2W2Q1
B5FIV5
B5R1C0
B5REX5
B1IZU1
Q60AK7
B4TJV1
Q7MR39
P76342
B4SUN2
Q9CN98
B7NRB1
Q6DAI9
C6DIK7
Q9HVA4
Q5PJV7
Q8PLY8
B7MWF7
B7NBW2
A9N876
B7M3A9
B6I116
B1LQN8
Q88DZ2
B5BGT1
Q8PA98
Q1RAH1
Q888N2
F1QH17
F1QWK4
P18656
P02653
P09813
P0DM95
Q8MIQ5
P0DJD2
P04638
P34928
P02647
P68292
Q9Z2L4
Q9Z2R5
D2HC77
P0DMA6
P15497
P02648
G3QY98
G5BQH5
Q00623
P19035
P12279
P33622
P06759
P18648
P0DMC0
P0DMA8
P0DM91
P0DM92
P0DJG0
P68293
P0DMA9
P18649
P0DKW6
Q03247
P0DKW7
P23529
P0DKU9
Q9GLM8
P02649
Q9GLM6
P10517
P05770
P0DJG1
P09809
P04639
P0DMC1
Q28502
P08226
Q9GJU3
P0DKY2
P18650
Q9GLM7
O18759
P0DMB0
P18287
P02650
P0DKW8
Q28995
Q7M2U8
Q9GLC0
E2RAK7
P0DJG2
P02652
Q7M2U7
P18775
P0DKQ7
P83376

>  <Last Modified>  (8) 
26 Feb 2010

$$$$

     RDKit          2D

 11 10  0  0  1  0  0  0  0  0999 V2000
    0.0000   -0.8250    0.0000 C   0  0  0  0  0  0  0  0  0  0  0  0
    0.7145   -0.4125    0.0000 N   0  0  0  0  0  0  0  0  0  0  0  0
    0.7145    0.4125    0.0000 C   0  0  0  0  0  0  0  0  0  0  0  0
    0.0000    0.8250    0.0000 C   0  0  0  0  0  0  0  0  0  0  0  0
   -0.7145    0.4125    0.0000 C   0  0  0  0  0  0  0  0  0  0  0  0
    1.4289    0.8250    0.0000 C   0  0  0  0  0  0  0  0  0  0  0  0
    1.4289    1.6499    0.0000 O   0  0  0  0  0  0  0  0  0  0  0  0
   -1.4289    0.8249    0.0000 S   0  0  0  0  0  0  0  0  0  0  0  0
   -2.1434    0.4124    0.0000 C   0  0  0  0  0  0  0  0  0  0  0  0
    2.1434    0.4125    0.0000 *   0  0  0  0  0  0  0  0  0  0  0  0
    0.0000   -1.6500    0.0000 O   0  0  0  0  0  0  0  0  0  0  0  0
  1 11  2  0
  2  1  1  0
  3  2  1  0
  3  6  1  0
  3  4  1  1
  4  5  1  0
  5  8  1  0
  6  7  2  0
  6 10  1  0
  8  9  1  0
V   10 *
M  END
>  <ChEBI ID>  (9) 
CHEBI:49298

>  <ChEBI Name>  (9) 
N-formyl-L-methionyl group

>  <Star>  (9) 
3

>  <Definition>  (9) 
An amino-acid residue derived from N-formyl-L-methionine.

>  <Secondary ChEBI ID>  (9) 
CHEBI:33718
CHEBI:82797
CHEBI:42505

>  <SMILES>  (9) 
C(=O)(N[C@H](C(=O)*)CCSC)[H]

>  <Formulae>  (9) 
C6H10NO2S

>  <Charge>  (9) 
0

>  <Mass>  (9) 
160.21514

>  <Monoisotopic Mass>  (9) 
160.04322

>  <IUPAC Names>  (9) 
(2S)-2-formamido-4-(methylsulfanyl)butanoyl
N-formyl-L-methionyl

>  <Synonyms>  (9) 
(2S)-2-(formylamino)-4-(methylthio)butanoyl
N-FORMYLMETHIONINE
N-formyl-L-methionine
N-formyl-L-methionine residue
fMet
fMet-
formylmethionyl

>  <PDBeChem Database Links>  (9) 
FME

>  <RESID Database Links>  (9) 
AA0021

>  <PubChem Database Links>  (9) 
SID: 49742691

>  <Rhea Database Links>  (9) 
RHEA:24420

>  <SABIO-RK Database Links>  (9) 
329

>  <UniProt Database Links>  (9) 
P69545
P69803
P69802
P69801
P69804
P69807
P69806
B7GUZ7
A3N2N5
B3GYS0
B0BRR3
A6VKJ6
A0KEW9
A4ST58
B9J8C6
Q8UID0
B9JQX1
B2UQR9
Q0VTE2
A1WD32
A1TW87
Q6F6P9
B2I2H7
B7I2C3
A3MAA1
B0VQ12
B0VAE0
C1F542
A0LUE0
B9MI87
A5FVK3
B7J3C1
B5EJ84
P0A884
P0A886
P0A885
Q65JS5
Q6HEU9
C0RMH3
Q576T0
A9MCV9
Q9PJL2
Q5L722
B8G4D0
Q3ATB5
B3EE18
B3EPG6
Q9Z7Q5
A1BHJ9
B9LFJ4
Q7NQ76
Q1QTJ4
A5CRW8
Q8XJL3
A0Q115
Q0SS78
B6J3C2
B1VDP0
B6J655
A4J579
B8J1H5
Q6AQ97
A8A592
B1X6E0
A1AGH9
Q0TCH4
A7HLH4
C4ZEV8
B0S140
A4IM47
C5D8R6
A5GBL0
Q5X1U6
A4G1G8
Q0I182
Q38XT6
A5IAY3
B1MCB9
A0QI16
A6Q4C9
Q3J6T9
Q3SN28
Q5YTN5
B4F1L6
Q7VBU5
Q7V7H4
C1B4K2
C0ZZD9
Q21RP5
Q5WFK7
A8FD38
P94463
Q8A0S6
A5VVU0
P64132
A9WW44
Q824Q3
Q3KLG7
B0B8A4
O05101
B0REV2
A3DCX5
Q895Q1
A9N9H5
A9KH14
A1V9B4
Q725Q9
A5EWL9
B1IQ12
Q8FD13
Q7NJK1
A5FNN7
B0UWZ4
Q5WTK7
Q5ZSC5
A1KIJ5
P64135
C1AN51
Q8YRI6
A1SJG2
Q2G493
Q6NC50
Q7TUA3
Q2J2C5
B8ZMJ8
B1I7J8
Q48S21
C1CSZ4
C1CM71
A9VTA4
A6KWC4
A1UUB5
B8D9S0
P64133
P57564
Q8KCG8
B0B9Y3
O84535
B2V4B2
A6LSJ8
B5Y7I0
Q48AS9
A7MPE8
Q83AA8
B8E0X6
B5YF45
B7NDQ9
P23882
B6I201
Q0RF89
A6H148
B0U0T8
Q5FPX2
A9HKQ4
Q04SV8
Q96DP5
B4U5Z8
Q6AF77
Q050Y2
B1XW99
Q8ER25
Q2SRX1
A6WYK8
Q46KX0
A2BRA1
Q5M3I7
Q5LYX4
B9DV45
C1CFV7
A6QB68
Q30QP2
B2V969
Q6G1G8
Q6G5F1
A9ILK1
B8D822
Q8K974
P59557
B8I255
B2THS2
Q182S2
Q6NH23
C3PG27
Q8FT52
B7KHD0
B8HUR2
Q47K50
A7ZSH6
A8LLC0
B7UK11
Q1R645
B1LGP4
C5BF18
A8LE22
Q2J845
Q14HS3
Q7VK98
Q0BUB3
Q8F3K6
Q5QXI6
A6SU87
Q72S34
A4TC02
P47605
A5CF64
B6JJP7
Q48QI2
A4SFP1
Q15ZY3
A6UX80
A6TRW7
Q0A5C0
A8MH85
Q6MJL7
Q1LT57
C5C697
B8DTX1
Q1BSJ4
B1YPX6
Q8NQ47
A4QEH4
Q4JVI0
A5FPB5
Q3Z614
Q3ZZW0
B7LHY8
B7MCQ3
Q8X8F1
Q2GFU1
Q3YSQ0
Q5FFG4
Q2A2U6
A7NCY0
B2SGG5
A5UEB3
Q4QMV7
A5UH91
A6WCA9
Q28V76
Q9CCQ0
Q92AI5
B8ZUM6
B2HP60
Q6MTF8
A1AZR0
A6LCS5
A7HPQ2
Q6ME71
Q2JK54
B7V0Q3
Q2JTY2
Q0AXL4
A5GKR0
Q7U6Z1
Q3AK21
Q55163
B7IFU7
A6LJK9
A8F525
Q2IGM4
B8J9P3
B3DRM9
A1A0U2
A0KBJ7
B1K0J5
B4E7V8
A9BS67
Q9RRQ3
B7NLK7
B5YT07
B7N172
B2KCQ4
Q5HBX2
A4WF96
Q0BLC5
A0Q626
Q5NGC1
B8F7U6
P44787
Q2SQX2
A6TEU1
B5XNC3
Q1IIS2
Q71YJ3
C1KWC2
B8DDS9
Q8EX00
Q741F8
P75235
Q98RG4
Q6D001
P57949
Q3SMS3
Q02V63
Q31J85
B1AJA4
Q73M65
O83737
B1GZ11
Q9PQ27
B5ZBV9
B5FCW7
A7N122
Q5E1Q7
Q87KD4
B7VMX2
Q2GJB8
Q5PBC7
B4UGK3
B7GUP8
Q8G3H1
A9AC69
Q0BAT6
Q62MT4
C4ZUE2
B7M0Z3
B2VK94
Q82ZD8
Q8RDM3
A4IXN6
B8CWS7
A1WZH3
C4K6Y1
Q5FJH5
C5CG19
Q03RS3
A0AJS8
Q8Y676
B1HQE4
B9EB94
A3PZ81
A0QWU2
A1UFM0
Q03FY3
C6DFR6
Q1IH35
O85732
Q4KKR0
C3KE47
Q5H5D0
Q2P825
B2SL54
B2I8S3
Q9PEV1
A7FNK3
Q87AR0
A1JRZ2
A9R926
B2K505
Q8ZJ80
Q664V3
A4TH22
B1JJH7
Q5NPC5
O67890
Q3M7E8
Q493I2
Q7VQC1
Q3JXE1
A3NQ23
C4Z520
B7LRQ4
B9M2D5
B5ED77
B0TGS9
Q17Y87
B6JMY1
B3WEW9
Q038H3
Q049P0
A0L3X7
Q2WAS9
Q65QF1
A1TWN0
A5U2A8
Q1B9E3
P9WND2
A1ALC4
Q3B2V0
A5D1B9
Q4FNG0
A1R5R2
Q3IDI3
A4XNB2
Q5P4H6
B8HH63
Q0SPA1
Q2L0K7
Q7WQS8
B2JJU4
A3N4D4
B2T1K6
B3EAP0
Q5L0S3
Q39QC2
Q74GW4
Q9ZK72
Q1CSC6
P56461
Q044H0
B2GD55
Q11LC8
Q6F155
Q603G2
Q1H4Y0
A0PPK9
P9WND3
A1T8J4
B4RDU2
C0QUK8
Q7MYI1
Q3KKE6
A5VWJ8
B0KF29
Q88RR2
Q31LC9
Q67PR4
Q2LRX4
Q5N0J8
B1XP50
Q0IAL3
A5GU17
Q3AXQ4
Q47R04
Q8DHS1
A5IJP6
Q9WYZ8
B9KBC2
B1L8W7
B6YQF1
A0JVJ5
B7J100
O51091
B5RKW3
Q39BU5
Q63YR6
Q2T2B1
A9B2Z9
Q9CEE9
Q74IM9
A2RN27
Q02WP8
B8IFQ3
B3DXI7
A2SCF7
B2A2K2
Q1DCG7
Q5F5P7
B4RPX5
A1VU45
Q6LLJ2
B1XSN1
Q88B42
B1J432
Q500T0
Q5SLH3
Q72H32
Q8R9T1
P43523
Q114P5
B5YIL6
C4L7Y3
B2S3Z5
A1WQ79
C5CQE1
O87726
A5F4B4
C3LPB8
Q9KVU4
Q7MGK5
Q8DDE4
Q73GR6
Q8D259
B3CLK1
C3P637
A7Z4J3
C3L761
B2S1P9
Q662V0
Q147A4
A4JJ22
A4XL81
Q1WUB1
Q88WL3
B0JY70
B0UP41
Q9JWY9
A9M463
Q9K1K6
B2RM92
A4T0M5
Q7MTE3
B4S9B8
A1SR38
A4VFH7
C0R3S7
Q7MA26
Q8PG21
Q4UQ15
Q3BNK7
B0U4M3
Q8P4G0
Q13F19
P32785
B2IS85
B5XMI3
Q21B59
A4WNU8
Q3IZH6
B9KML7
C3PMQ0
Q1RJ22
O33508
O33510
P50932
O33543
C4K0Y8
Q81WH2
A0RHN9
B7JJV3
A9IFQ1
Q7W1V2
A0RR35
A7H026
A7I168
Q2RK24
Q9D799
Q0AJ02
A1KRE6
Q820J7
A2C296
Q6A8H1
B2U795
Q8Y3A8
Q5I0C5
A9WR74
A4VZN1
Q8DNR7
C0MH30
A4VTF3
A3CPX4
A3PMS1
B3QCH2
O33545
O33509
O33520
O33544
A4FBJ4
A7NNY4
Q16AL2
Q1GDF7
C0PZV0
A8LY30
Q57J63
A9N8B2
B5BGV4
B4TXB1
B8E3S3
A1S1J8
A3CYK4
A6WHB0
C1EP90
B7IUM5
B7HDY9
B5RQP3
Q7VS89
A8FJQ3
A7H1H2
Q9PJ28
Q2YC20
Q1QH77
A2C9M6
A8G4Z4
A9BAJ3
Q2KD50
B3PZF7
Q98D53
O33523
O33519
A8F0W5
O33535
O33575
B0BWL1
O33582
Q1AVZ9
A5V070
Q5LNI8
B5F7R4
B5R1E4
B5FJI3
B5RH48
B4TJX8
Q12TA6
Q8Z1X0
A4X631
A9KUA1
Q08A29
B0TLC9
Q0I0S3
A8GYH2
Q0HPA7
A9FL08
Q0T015
Q83PZ0
Q023V5
Q1GWK0
A5VDM0
P64136
Q5HGL6
A6QGB6
A7GRJ6
B7HLJ9
B9IVF5
A1QYL4
O77480
Q89BP0
Q5HX68
A1VXI1
Q31AS6
A2BWG3
Q92SH5
B5ZN20
C3MF25
Q5PIT7
B4SUQ9
Q9UTG6
Q8ZLM6
A8GKG6
Q8EKQ9
A3QJF5
B8CHB1
A4Y1C6
A0KR60
A8FP74
A6U135
A1RDX6
Q3YWX2
A7X1H4
Q2FHM2
Q2FZ68
Q6GHL9
P99127
Q6G9Z7
A8Z3Q2
A8AVV3
Q5HPX5
Q8CSW1
C0M780
C1C8X2
Q8DVK4
Q5XAP4
Q8P003
Q1JAJ7
P0DB05
Q97PA6
Q636G0
Q819U1
A4YLC0
A5ESQ6
Q3AC19
B9KER4
B8GYF1
B6IPI1
Q7UHZ6
B2U2Q5
B1KCW3
Q31VY9
Q32B62
Q2NQQ3
A6U5I5
Q2YXK0
A5ISA1
B9DPM5
Q8NX18
P64137
Q3K365
P64138
Q827P7
Q1CCX5
B1W473
Q99YM7
Q04J40
Q1JKP9
Q1C2X8
Q64PD6
Q5L975
Q9K9Y6
Q2YJQ3
B2SC20
B0T1S7
Q9ABE9
A9WAR0
Q9L0Y6
B2FIR3
B4SKH6
B5E782
P0DB04
Q1J5I9
Q1JFP0
A2RD70
Q37304
P69447
P68705
P00845
P68701
P68700
P68702
P68706
P68699
P68703
P68704
O57579
P79235
P80562
P80507
P82889
P03887
P79176
P21462
P79189
P33766
P79241
Q05394
A5A618
P15527
P0ABJ9
P00268
A9L980
P03892
P69776
P0ABK0
P0ABK1
P0ABK4
P0ABK3
P0ABK2
Q8GPI4
P04170
P03898
P00270
P15412
P56263
P03902
A8SE55
A6MMA6
Q0G9X8
Q6ENJ3
P0C405
Q09MJ4
A0A319
A4QKR5
A8W3A8
A7M8Y8
A8W3H4
A7M950
A6MMJ1
A4QL03
P0C406
P0C407
P62102
Q0ZJ36
Q06H13
P62104
Q49L14
B2XWN3
Q68S22
A0ZZ19
Q06FX7
Q3BAQ8
A4GGB3
Q06GS6
Q09G62
Q14FH3
A4GYP2
Q2L8Y9
B2LMH7
Q1KXX5
P25876
A6MMS8
A7Y3A3
Q06RE7
Q56P16
A4QL90
Q0G9N5
A4QLH8
A8Y9F4
P62105
Q09FX7
P62101
B1NWD4
Q09X33
A4QLR7
Q3C1F9
Q33C55
P62106
A1XGM2
A9LYG9
Q3V550
A4QJ99
Q6EW64
B0Z4N3
B0Z4W7
B0Z551
B0Z5D5
A4QJZ6
Q589B2
Q6L3B2
Q6ENY3
P62107
Q2MIB6
A4QJI3
A1E9Z2
Q70Y13
P62108
Q2MIK3
Q2VEJ2
A1E9Q8
A4QK89
A4QK02
P62100
P59762
A4QKH6
B3TNB7
A6MM20
Q7HKY2
B1A919
A6MVX8
Q2PMS7
P62103
P00396
P61840
P68553
P68554
P68530
Q9SHI1
Q9XEK9
Q08810
Q6B8S2
O78489
P57997
P51257
Q1XDN0
B7I3R9
A1TSK3
Q6FF40
B7H115
B2I2M7
B0VLU2
B0VE81
A1W8Z4
A0LV27
C1F697
A5FV21
A3N005
B3H163
B0BNR5
A6VNE0
B9JYK6
A0KNE3
A4SJR5
Q8UJ51
Q0VSS1
B6ENE2
Q0A797
B3EUG6
A6TRK7
A8MFA8
B4RXT8
B8JFY6
Q2IPZ7
B4UHG0
A7H9F3
Q5PAJ5
Q2GKQ2
Q3MBZ7
B7GG75
O67825
O59683
P46198
P46199
Q91YJ5
B8HG54
A8EWD7
Q5NZS1
A1R516
A0JUU0
Q2NIQ6
A8IG20
B6YQ44
P25038
C3P5L5
A1K7B9
C1DFK9
A7Z4T4
C3L7B4
A0RHI4
Q81WM3
P26647
P0A8K1
A9JX08
Q2FWM8
Q5HEG6
P0A0M1
P0A0M2
Q6GF37
Q6G7S2
P0C1V1
Q8NVK6
Q47505
P00847
P03929
P61829
P61828
P03910
P0C0X9
P0DJO0
P07503
P02947
P07368
P09927
P82543
A9JX05
A9JX06
A9JX07
P85219
P85222
P85220
P85223
P85221
P85224
P41022
Q8KFT1
O84098
Q1QSZ0
Q7NY13
A8AQ58
A5CSZ4
B0RDY9
Q97I51
A7FVZ3
A4IMD7
P04766
Q74CT3
C6E2Q0
C5D9C9
C1AFV3
B1MD87
P65132
A1KMI2
Q2SSE6
Q7NBZ4
Q02FS8
Q15V72
A6VCK1
B7V1F6
Q9ZF31
B4TWD8
Q8Z3H7
A4X4N7
A8G907
Q67P86
C1CQ48
Q30SS6
A6QBQ5
B2TJ55
C3L0B6
A6LSQ4
B2V4G9
A5I4J3
C1FS59
B1II49
Q5FQM3
A5GF86
Q7NH85
A9HF18
Q0BPG2
A0LXQ1
Q7VLI2
Q4A7E2
P47388
A4TCF8
Q5ZZV6
Q4A9A2
B8ZRT4
Q9Z5I9
B2HKS2
A3D7K6
Q9HV55
Q1IF43
Q4KIF6
A1S462
B8E6N2
A6WRG8
A9KZX1
Q2JSB7
Q2LWU6
Q31LL9
A0LHL8
Q2JMD7
B1XI09
B7HDT6
Q732Q9
B7IUH1
C1EP35
B7HLE6
A7GRE3
B9IVA1
Q812X7
Q636L3
Q18BH4
A7GG06
B1KWK7
B8I6E7
A5N842
A0Q0Q7
Q0TPR7
P44323
Q4QK37
A5UBT6
A5UF34
Q2SML3
A1WXV1
B8CW72
Q8EWU0
Q6KID8
Q6MTQ0
Q73VV4
P75590
Q98R05
A5W987
C3K259
Q3IJ53
A4XYE0
A3QGU5
Q12QI1
Q086H2
B0TQA2
Q8EHL5
A8H740
A5GVG4
Q5N0A5
A5GNJ0
Q7U8L9
Q0I7K2
Q6HF02
Q5LIN1
Q64ZR4
Q9KA77
Q65JI1
A8FDD1
Q5WFU2
P17889
Q895J8
Q8XJR8
A9KNW4
Q0SSD4
A3DE44
Q482T9
C3PH19
Q6NGN2
B6JKX5
C4K3F0
Q17WQ8
Q7VHF6
B5Z6E6
Q1CUA6
Q1BA94
Q4A578
A3PY75
A1UER8
A5U6J1
P9WKK0
P9WKK1
B1J2A9
Q3KI84
B0KHX8
Q88DV7
A8FYS0
A4Y9C0
B8CKH3
A0KTZ6
Q0HLG1
Q0HXR5
P72689
Q3AZB7
Q3AHW1
Q0AYI8
C5BPV9
A1UU50
Q8A2A1
A6L030
A9VT50
Q6G4W7
Q6G0P2
A9IMT5
Q1LSK8
Q4JV51
Q8FPA7
A4QEZ2
Q8NP40
B1VGC2
B6J6B1
B6IZ61
A9KBM1
A4G7S7
Q9ZM46
B2USN4
P55972
Q0I3P5
B0UU13
B2A397
A0PQC4
A1T7H8
Q1DAM6
Q5F797
B4RMZ3
Q4FVL5
Q87WQ5
Q4ZNR2
A4VPP0
Q31W47
A1RGX5
B1KRR0
B2U207
Q32BG5
Q0T0B3
A8F5A0
B7IF03
Q8DK04
Q47RV1
A6LP48
B8DW43
Q6MMS6
B2IIJ7
C5BWS3
A1A0A2
B3DQF0
Q0K9B9
A9N8V6
Q83BS1
A7MQE1
Q46ZP1
B3R1E4
B8HUA9
B7KIU2
Q28WF7
Q0C5Z5
Q5QTY8
A6T0Y8
A6W7Z2
Q9ZF28
A1KV51
A9M1D5
Q9JTB5
Q9JYD2
Q0AFJ3
Q82WD0
Q1QS64
Q2Y7W2
Q1LLR6
Q1QEP5
A1ST45
A5WBS5
B2UAA3
Q2NW23
Q83JF9
Q3YX73
A6UF29
Q01W31
Q1GVI9
B0K1D6
Q9WZN3
A5IJ09
B0K9Q0
B1L7T1
Q72KE8
Q493T7
Q8G3Y5
B7GNA3
Q7VQM3
Q2KXY7
Q0SM50
Q7WHG2
O51741
Q65ZX2
A5FQR6
Q11PK5
Q47D94
Q3Z7U3
Q3ZXU3
C1CUQ9
Q1IZ02
Q1IIT3
B5XSX4
A6TEI7
B2GKR5
C5CDZ4
Q5FJN6
Q03QT5
Q038M5
Q5YSC6
Q3J9B6
A6Q226
Q3SWP9
A1SLK7
B2J955
Q2KDZ5
Q8XZV6
A9WPV8
B3PXE3
Q1MN39
Q2FHG9
A5VCZ5
A7X1Q1
A6U188
Q2G2D0
A5ISF3
Q31GK5
P48515
Q8RA37
B5YHT8
Q3SKX1
Q89WA9
Q7W9A5
A9ITX6
Q7VYR2
A5E866
A4YJE9
Q2YQR7
B8J1Y4
Q9RTG5
B8FCY5
C0QHM2
Q30WJ0
Q24UI6
A8ZZ65
Q6AJY4
A4J5X2
Q72ER1
A1VG83
B2GBN7
B3WER5
Q1G9P9
Q049V5
Q044B7
A8YVQ7
A6WWW5
Q8YQJ1
Q2G5E7
Q8EQU1
Q04GN0
Q6YR66
C0ZYA5
Q98BI8
Q92SW4
Q7URR0
Q21WJ5
C1B313
Q2J2J9
P65133
Q2YXP7
Q5HGG2
A6QGG8
P65134
Q6GHG6
Q6G9U4
O83861
B8GP02
C4L8X4
Q73NP6
Q10XM3
A5VTB2
Q57AA0
A9M9Z4
Q8YEB3
B0CK11
Q8FXT2
B8D9G2
P57458
B7UJ63
A5EWY9
A8LQ56
A7ZS65
B7MB89
B7LHN3
P0A706
A2RM37
Q74IS8
P58002
Q9X764
Q030K2
Q88VK7
A5VJE0
A7HZ93
A5CEN6
A6LHS1
A1B587
Q6MD64
P57873
Q13EL8
Q07V78
Q6NCN5
Q21C31
Q2RMS0
A3PNL2
Q5HPS2
A8Z3U9
Q8NWZ1
B9DPF5
Q8CST4
Q4L5X1
Q9PQH1
Q83HG7
Q83GT8
B1AIV8
B5ZBC9
C5CLW3
B1YP36
Q8K9H1
B8D7R4
Q89AF5
Q1BWS7
B1K0M0
A0K6X5
B7M076
B5YS58
B7NKN7
B7N0V3
C4ZSQ9
B1XGY0
A8A4Y4
A1AG73
C1D8X2
B2G6V6
Q1WUF4
Q38W81
Q1MQY8
Q5X1C3
A5IHU7
Q3A4A7
Q6D9A5
C6DKK3
Q03FS3
Q3B1Z8
B4SCE7
A8GNW1
Q3IYN5
A4WW80
Q0S219
A8GW31
Q1RIX0
A8EYF4
P0A3K6
Q49X54
P55875
Q3K302
Q8E1H3
P0A3K7
Q82K53
A7MZI5
A1WLI3
A5CXX6
A5F926
Q9KU80
A3MJW4
B4E7L1
Q0BFY3
A9ABD5
A2S2L1
Q62KK9
A1V3N4
A3NUL0
Q3JSY9
P0A705
Q0TCU1
P59587
B1IQV3
B7NDF4
B6I1P3
B0SH18
Q5ZRV4
Q5WT36
Q6AG49
Q04U31
Q04ZJ5
C0QTL9
A1AMM1
A5D2S0
Q4FNM9
A9BJ54
B4RC55
Q7MYY7
Q6LUJ2
Q9ZCZ8
Q92HF5
Q4UL51
A8F223
B0BY61
A8GSP4
Q68WI4
A7NID1
A8AVQ2
Q8CJQ8
C0M8P7
B4U1E8
B1VYN5
B4SQS0
B2FN90
Q87M02
C3LSP8
Q5E7L5
B5FA79
B7VJH7
Q8DBW0
Q63TP8
A3N8V8
B2JKT4
B2T381
Q39H30
Q2SVG8
A4JDX1
Q140U6
A4XL70
A7ZC69
Q3YS01
B1LFS0
Q1R6H0
C5BFB7
Q2GGQ8
Q5FGX3
Q5HB61
A4WEY3
Q8F7K1
B0SQH4
B1XY67
Q72NX3
B1MZH4
Q03WH4
A4SY78
A1VNU2
B1XV89
Q12AU7
B2RHM9
Q7MXE4
B4S4S6
Q6A7M5
Q5LWL4
Q16D38
A5UZQ2
Q1AW55
Q1GCH2
Q8DVP9
Q99YG1
Q04LW0
P0DB84
B5E266
Q5XAH1
C1C5S8
Q5GS99
Q7MI09
Q8D2X6
Q73FL0
Q7M7X5
Q8PJ55
A8FJU1
A7GZZ3
A0RQZ4
A7I3V0
A7H1L5
Q9PIZ1
Q2NC10
Q9ZF25
Q835U8
P18311
B7LR37
C4Z5N7
B8DG02
Q92C29
C1L2N1
Q71ZZ7
Q8Y7F6
A0AIC6
B1HR05
A2C6Q5
A3PEY3
A2C4P1
A8G6Z5
A9BCI5
B5F6T8
A1AV99
Q21H61
A4FM34
A8M746
Q1JFG4
Q8NZU7
Q1JAC1
Q1JKH1
Q1J5B4
A2RD01
Q8P7U7
Q3BRP5
Q4UWA2
B0RRB4
Q2P0X1
B2SVK3
Q3AB98
A1VXL9
Q5HX30
B9KEV0
Q9AC25
B0T167
B3PI96
A9WGP6
Q5L627
A6GWV8
A7HN01
B0S1E5
A5FJF9
Q0RDS4
B0TWR3
Q2J728
A8L6F4
Q65SK9
B9EBE9
Q2VZV0
A0LE19
A1U600
B5FI13
A2BYM0
Q318P8
Q7VA20
A9MP36
Q57JH9
Q97S57
B1IA80
B8ZM93
Q48RU8
P0DB85
B2IME4
B0U1Q8
Q5GXU9
B2I726
Q9PGR3
Q87EV4
A1JIW9
Q254H4
B8GAE2
Q3AQK7
Q823F2
B3EFB1
Q9PKU0
B3QQI2
B2SEW7
Q14K20
A7NEI8
Q2A1G8
A0Q8F3
Q0BK70
Q5NIL7
A4IW10
Q11BC8
Q0AK69
A6VU29
Q6F1H1
Q609C0
Q1GXD6
B1ZDQ8
A2BT70
B4F2B9
Q7V5M4
Q7UZZ9
B4T6Z8
B5QZV8
B5REN6
B4TJ06
Q5PLB0
A9N732
C0MDY5
B5XHV3
Q8DQV2
A4W3R7
A3CQ18
A4VXH3
Q8ZBC2
A7FMS2
Q1CC07
B2K2Q5
A9R5A3
Q1CEL3
A4TRI3
B9LBJ2
B3ELN8
A1BDF1
Q9Z8M1
B0B9K4
B3QUN2
Q3KMS4
B0BB83
Q5L0I8
Q8R5Z1
B5EI57
B9M1G0
B3EAE7
Q39VA6
C5C9T1
A2SH40
B8EIA7
B0JU67
Q2RJM5
A0QIY2
Q48E77
Q46J13
A4SGG2
Q9ZF22
Q03M88
C0PZ54
B5BGJ5
Q2S1N7
Q5M1B9
Q5M5V5
B9DVB7
C1CCT8
C1CJ39
P06008
P11350
P39321
P02920
P11697
P11698
Q66F60
B1JLY0
Q5NQ27
P03920
P21109
P11699

>  <Last Modified>  (9) 
30 Oct 2014

$$$$

     RDKit          2D

  9  8  0  0  1  0  0  0  0  0999 V2000
    0.7145    0.1031    0.0000 C   0  0  0  0  0  0  0  0  0  0  0  0
    0.0000   -0.3094    0.0000 C   0  0  0  0  0  0  0  0  0  0  0  0
   -0.7145    0.1031    0.0000 C   0  0  0  0  0  0  0  0  0  0  0  0
   -0.7145    0.9281    0.0000 C   0  0  0  0  0  0  0  0  0  0  0  0
   -1.4289   -0.3094    0.0000 C   0  0  0  0  0  0  0  0  0  0  0  0
    0.0000   -1.1344    0.0000 N   0  0  0  0  0  0  0  0  0  0  0  0
   -0.7145   -1.5469    0.0000 *   0  0  0  0  0  0  0  0  0  0  0  0
    1.4289   -0.3094    0.0000 *   0  0  0  0  0  0  0  0  0  0  0  0
    0.7145    0.9281    0.0000 O   0  0  0  0  0  0  0  0  0  0  0  0
  1  9  2  0
  8  1  1  0
  2  1  1  0
  2  6  1  6
  3  2  1  0
  4  3  1  0
  5  3  1  0
  6  7  1  0
V    7 *
V    8 *
M  END
>  <ChEBI ID>  (10) 
CHEBI:50328

>  <ChEBI Name>  (10) 
D-valine residue

>  <Star>  (10) 
3

>  <Secondary ChEBI ID>  (10) 
CHEBI:42118
CHEBI:30016

>  <SMILES>  (10) 
C(=O)(*)[C@H](N*)C(C)C

>  <Formulae>  (10) 
C5H9NO

>  <Charge>  (10) 
0

>  <Mass>  (10) 
99.13110

>  <Monoisotopic Mass>  (10) 
99.06841

>  <Synonyms>  (10) 
-D-Val-
D-VALINE
D-Val
D-valine residue
D-valyl
DVal

>  <PDBeChem Database Links>  (10) 
DVA

>  <Patent Database Links>  (10) 
EP1724280
EP1992641
WO2005021494

>  <PubChem Database Links>  (10) 
SID: 50139213

>  <SABIO-RK Database Links>  (10) 
14017
12419
12422
9829
12430
12432
7750

>  <UniProt Database Links>  (10) 
Q9M7B8
P9WG37
O31616
Q70LM6
Q70LM5
P84700
P84701
G1UII1
O69056
Q06539

>  <Last Modified>  (10) 
11 Oct 2018

$$$$

     RDKit          2D

 10  9  0  0  1  0  0  0  0  0999 V2000
   -0.3572    0.2063    0.0000 C   0  0  0  0  0  0  0  0  0  0  0  0
   -1.7862    0.2063    0.0000 N   0  0  0  0  0  0  0  0  0  0  0  0
   -1.0717   -0.2062    0.0000 C   0  0  0  0  0  0  0  0  0  0  0  0
   -1.0717   -1.0312    0.0000 O   0  0  0  0  0  0  0  0  0  0  0  0
    1.0717    0.2063    0.0000 C   0  0  0  0  0  0  0  0  0  0  0  0
    1.0717    1.0313    0.0000 O   0  0  0  0  0  0  0  0  0  0  0  0
    0.3572   -0.2063    0.0000 C   0  0  0  0  0  0  0  0  0  0  0  0
    0.3572   -1.0313    0.0000 N   0  0  0  0  0  0  0  0  0  0  0  0
   -0.3573   -1.4438    0.0000 *   0  0  0  0  0  0  0  0  0  0  0  0
    1.7861   -0.2063    0.0000 *   0  0  0  0  0  0  0  0  0  0  0  0
  5 10  1  0
  7  5  1  0
  7  1  1  6
  3  1  1  0
  2  3  1  0
  3  4  2  0
  5  6  2  0
  7  8  1  0
  8  9  1  0
V    9 *
V   10 *
M  END
>  <ChEBI ID>  (11) 
CHEBI:50349

>  <ChEBI Name>  (11) 
D-asparagine residue

>  <Star>  (11) 
3

>  <Secondary ChEBI ID>  (11) 
CHEBI:29957
CHEBI:42123

>  <SMILES>  (11) 
C([C@H](C(*)=O)N*)C(N)=O

>  <Formulae>  (11) 
C4H6N2O2

>  <Charge>  (11) 
0

>  <Mass>  (11) 
114.10272

>  <Monoisotopic Mass>  (11) 
114.04293

>  <Synonyms>  (11) 
-D-Asn-
D-ASPARAGINE
D-Asn
D-asparagine
D-asparagine residue
D-asparaginyl
DAsn

>  <PDBeChem Database Links>  (11) 
DSG

>  <RESID Database Links>  (11) 
AA0196

>  <PubChem Database Links>  (11) 
SID: 50139216

>  <SABIO-RK Database Links>  (11) 
9767
9589
11670

>  <UniProt Database Links>  (11) 
P0CZ17
P0CX77
P0CX78
P0CX79
P35905
G1UII1
Q9Z4Z5

>  <Last Modified>  (11) 
21 Jun 2018

$$$$

     RDKit          2D

 22 22  0  0  1  0  0  0  0  0999 V2000
   20.0374   -9.6377    0.0000 C   0  0  0  0  0  0  0  0  0  0  0  0
   20.9034  -10.1377    0.0000 C   0  0  0  0  0  0  0  0  0  0  0  0
   21.7694   -9.6377    0.0000 C   0  0  0  0  0  0  0  0  0  0  0  0
   22.6353  -10.1377    0.0000 *   0  0  0  0  0  0  0  0  0  0  0  0
   21.7694   -8.6377    0.0000 O   0  0  0  0  0  0  0  0  0  0  0  0
   20.9034  -11.1377    0.0000 N   0  0  0  0  0  0  0  0  0  0  0  0
   19.1713  -10.1377    0.0000 O   0  0  0  0  0  0  0  0  0  0  0  0
   18.3051   -9.6377    0.0000 C   0  0  0  0  0  0  0  0  0  0  0  0
   17.4391  -10.1377    0.0000 C   0  0  0  0  0  0  0  0  0  0  0  0
   18.3051   -8.6377    0.0000 O   0  0  0  0  0  0  0  0  0  0  0  0
   16.5731   -9.6377    0.0000 C   0  0  0  0  0  0  0  0  0  0  0  0
   17.4391   -8.1378    0.0000 C   0  0  0  0  0  0  0  0  0  0  0  0
   16.5731   -8.6377    0.0000 C   0  0  0  0  0  0  0  0  0  0  0  0
   17.4392  -11.1377    0.0000 N   0  0  0  0  0  0  0  0  0  0  0  0
   15.7073  -10.1377    0.0000 O   0  0  0  0  0  0  0  0  0  0  0  0
   15.7069   -8.1380    0.0000 O   0  0  0  0  0  0  0  0  0  0  0  0
   17.4389   -7.1377    0.0000 C   0  0  0  0  0  0  0  0  0  0  0  0
   16.5729   -6.6377    0.0000 O   0  0  0  0  0  0  0  0  0  0  0  0
   16.5734  -11.6377    0.0000 C   0  0  0  0  0  0  0  0  0  0  0  0
   16.5734  -12.6378    0.0000 O   0  0  0  0  0  0  0  0  0  0  0  0
   15.7071  -11.1377    0.0000 C   0  0  0  0  0  0  0  0  0  0  0  0
   20.0374  -11.6377    0.0000 *   0  0  0  0  0  0  0  0  0  0  0  0
  2  1  1  1
  2  3  1  0
  3  4  1  0
  3  5  2  0
  2  6  1  0
  1  7  1  0
  8  9  1  0
  8 10  1  0
  9 11  1  0
 10 12  1  0
 11 13  1  0
 12 13  1  0
  9 14  1  6
 11 15  1  1
 13 16  1  1
 12 17  1  1
 18 17  1  0
 20 19  2  0
 21 19  1  0
 14 19  1  0
  8  7  1  6
  6 22  1  0
V    4 *
V   22 *
M  END
>  <ChEBI ID>  (12) 
CHEBI:53604

>  <ChEBI Name>  (12) 
O-(N-acetyl-alpha-D-galactosaminyl)-L-serine residue

>  <Star>  (12) 
3

>  <Definition>  (12) 
An L-alpha-amino acid residue derived from O-(N-acetyl-alpha-D-galactosaminyl)-L-serine.

>  <Secondary ChEBI ID>  (12) 
CHEBI:87078

>  <SMILES>  (12) 
C([C@@H](C(*)=O)N*)O[C@@H]1[C@@H]([C@H]([C@H]([C@H](O1)CO)O)O)NC(=O)C

>  <Formulae>  (12) 
C11H18N2O7

>  <Charge>  (12) 
0

>  <Mass>  (12) 
290.270

>  <Monoisotopic Mass>  (12) 
290.11140

>  <IUPAC Names>  (12) 
O-(2-acetamido-2-deoxy-alpha-D-galactopyranosyl)-L-serine residue

>  <Synonyms>  (12) 
-[GalNAc(alpha1->O)]Ser-
GalNAc alpha 1-O-Ser
N-acetyl-alpha-D-galactosaminyl-L-serine residue
Tn antigen

>  <PubMed citation Links>  (12) 
8948436
8226812
1426254
1378020
9509302
26847142

>  <RESID Database Links>  (12) 
AA0154

>  <PubChem Database Links>  (12) 
SID: 87246475

>  <Rhea Database Links>  (12) 
RHEA:56200
RHEA:46884
RHEA:23956

>  <Last Modified>  (12) 
10 Sep 2021

$$$$

     RDKit          2D

 29 28  0  0  0  0  0  0  0  0999 V2000
  -15.8335    1.3693    0.0000 C   0  0  0  0  0  0  0  0  0  0  0  0
  -15.0907    0.9568    0.0000 C   0  0  0  0  0  0  0  0  0  0  0  0
  -16.5480    0.9568    0.0000 N   0  0  0  0  0  0  0  0  0  0  0  0
  -17.2624    1.3693    0.0000 C   0  0  0  0  0  0  0  0  0  0  0  0
  -17.9769    0.9568    0.0000 O   0  0  0  0  0  0  0  0  0  0  0  0
  -16.5196    2.6068    0.0000 C   0  0  0  0  0  0  0  0  0  0  0  0
  -17.2624    2.1943    0.0000 C   0  0  0  0  0  0  0  0  0  0  0  0
  -16.5196    3.4318    0.0000 N   0  0  0  0  0  0  0  0  0  0  0  0
  -17.9485    3.4318    0.0000 O   0  0  0  0  0  0  0  0  0  0  0  0
  -17.2341    3.8444    0.0000 C   0  0  0  0  0  0  0  0  0  0  0  0
  -15.8051    4.6694    0.0000 C   0  0  0  0  0  0  0  0  0  0  0  0
  -16.9321    5.7963    0.0000 C   0  0  0  0  0  0  0  0  0  0  0  0
  -16.5196    5.0819    0.0000 C   0  0  0  0  0  0  0  0  0  0  0  0
  -16.1071    5.7963    0.0000 C   0  0  0  0  0  0  0  0  0  0  0  0
  -17.2341    4.6694    0.0000 C   0  0  0  0  0  0  0  0  0  0  0  0
  -17.9486    5.0819    0.0000 O   0  0  0  0  0  0  0  0  0  0  0  0
  -15.0907    5.0819    0.0000 O   0  0  0  0  0  0  0  0  0  0  0  0
  -13.4407    5.0819    0.0000 O   0  0  0  0  0  0  0  0  0  0  0  0
  -14.2657    5.9069    0.0000 O   0  0  0  0  0  0  0  0  0  0  0  0
  -14.2657    4.2569    0.0000 O   0  0  0  0  0  0  0  0  0  0  0  0
  -14.2657    5.0819    0.0000 P   0  0  0  0  0  0  0  0  0  0  0  0
  -14.3762    1.3693    0.0000 S   0  0  0  0  0  0  0  0  0  0  0  0
  -12.7262    5.4944    0.0000 C   0  0  0  0  0  0  0  0  0  0  0  0
  -12.0118    5.0819    0.0000 C   0  0  0  0  0  0  0  0  0  0  0  0
  -11.2973    5.4944    0.0000 C   0  0  0  0  0  0  0  0  0  0  0  0
  -10.5828    5.0819    0.0000 *   0  0  0  0  0  0  0  0  0  0  0  0
  -12.0118    4.2569    0.0000 N   0  0  0  0  0  0  0  0  0  0  0  0
  -11.2973    6.3194    0.0000 O   0  0  0  0  0  0  0  0  0  0  0  0
  -12.7262    3.8444    0.0000 *   0  0  0  0  0  0  0  0  0  0  0  0
  7  4  1  0
  4  3  1  0
  3  1  1  0
  1  2  1  0
  2 22  1  0
  4  5  2  0
  6  8  1  0
 10  8  1  0
  7  6  1  0
 10  9  2  0
 10 15  1  0
 15 13  1  0
 13 11  1  0
 11 17  1  0
 13 12  1  0
 13 14  1  0
 15 16  1  6
 17 21  1  0
 21 18  1  0
 21 19  2  0
 21 20  1  0
 18 23  1  0
 24 23  1  1
 24 25  1  0
 25 26  1  0
 24 27  1  0
 25 28  2  0
 27 29  1  0
M  CHG  1  20  -1
V   26 *
V   29 *
M  END
>  <ChEBI ID>  (13) 
CHEBI:64479

>  <ChEBI Name>  (13) 
O-(pantetheine-4'-phosphoryl)serine(1-) residue

>  <Star>  (13) 
3

>  <Definition>  (13) 
An anionic amino-acid residue formed by proton loss from the phospho group of an O-(pantetheine-4'-phosphoryl)serine residue, the principal form present at pH 7.3.

>  <Secondary ChEBI ID>  (13) 
CHEBI:76178

>  <SMILES>  (13) 
C(NC(CCNC(=O)[C@@H](C(COP(OC[C@@H](C(*)=O)N*)(=O)[O-])(C)C)O)=O)CS

>  <Formulae>  (13) 
C14H25N3O8PS

>  <Charge>  (13) 
-1

>  <Mass>  (13) 
426.40200

>  <Monoisotopic Mass>  (13) 
426.11000

>  <Synonyms>  (13) 
4'-phosphopantetheine-L-serine(1-) residue
O-(pantetheine 4'-phosphoryl)serine group(-1)
O-(pantetheine-4'-phosphoryl)-L-serine residue

>  <PubChem Database Links>  (13) 
SID: 136349070

>  <Rhea Database Links>  (13) 
RHEA:65000
RHEA:59156
RHEA:59160
RHEA:41788
RHEA:69396
RHEA:30123
RHEA:52660
RHEA:61788
RHEA:64888
RHEA:64892
RHEA:15057
RHEA:64236
RHEA:69472
RHEA:10304
RHEA:59212
RHEA:41884
RHEA:64492
RHEA:64664
RHEA:64524
RHEA:44596
RHEA:47824
RHEA:62452
RHEA:62460
RHEA:62500
RHEA:64496
RHEA:64096
RHEA:17665
RHEA:48408
RHEA:28022
RHEA:61808
RHEA:61692
RHEA:42292
RHEA:11656
RHEA:10696
RHEA:67812
RHEA:42296
RHEA:42852
RHEA:57640
RHEA:10096
RHEA:41820
RHEA:62504
RHEA:50344
RHEA:30119
RHEA:54328
RHEA:54696
RHEA:55040
RHEA:41800
RHEA:61680
RHEA:46228
RHEA:50460
RHEA:41792
RHEA:68124
RHEA:64660
RHEA:63620
RHEA:54964
RHEA:54176
RHEA:59436
RHEA:22660
RHEA:54972
RHEA:52936
RHEA:42300
RHEA:59204
RHEA:61796
RHEA:55140
RHEA:14565
RHEA:65004
RHEA:20633
RHEA:44012
RHEA:62492
RHEA:63632
RHEA:63636
RHEA:46708
RHEA:55732
RHEA:53836
RHEA:56860
RHEA:28434
RHEA:18565
RHEA:57612
RHEA:42288
RHEA:59168
RHEA:52340
RHEA:57644
RHEA:11592
RHEA:41916
RHEA:64528
RHEA:63820
RHEA:59164
RHEA:56420
RHEA:41852
RHEA:64232
RHEA:65012
RHEA:63628
RHEA:12068
RHEA:55728
RHEA:61676
RHEA:64544
RHEA:64548
RHEA:63624
RHEA:65308
RHEA:17057
RHEA:53968
RHEA:20537
RHEA:41836
RHEA:41868
RHEA:61708
RHEA:65104
RHEA:65108
RHEA:64024
RHEA:46944
RHEA:45624
RHEA:41900
RHEA:41932
RHEA:53964
RHEA:46940
RHEA:22836
RHEA:28442
RHEA:31339
RHEA:65312
RHEA:61648
RHEA:30171
RHEA:54180
RHEA:35179
RHEA:28438
RHEA:13925
RHEA:57616
RHEA:55592
RHEA:55720
RHEA:57636
RHEA:53948
RHEA:17817
RHEA:30115
RHEA:64512
RHEA:64028
RHEA:64080
RHEA:61704
RHEA:61700
RHEA:45588
RHEA:46504
RHEA:43064
RHEA:64484
RHEA:64488
RHEA:62448
RHEA:62476
RHEA:48604
RHEA:54940
RHEA:55132
RHEA:56280
RHEA:48404
RHEA:61652
RHEA:61696
RHEA:55724
RHEA:61800
RHEA:30131
RHEA:54700
RHEA:54924
RHEA:55760
RHEA:45628
RHEA:61688
RHEA:63204
RHEA:59172
RHEA:59196
RHEA:64072
RHEA:64088

>  <Last Modified>  (13) 
29 Oct 2014

$$$$

     RDKit          2D

 23 23  0  0  1  0  0  0  0  0999 V2000
   16.0628   -6.9271    0.0000 C   0  0  0  0  0  0  0  0  0  0  0  0
   16.0628   -7.9271    0.0000 C   0  0  0  0  0  0  0  0  0  0  0  0
   16.9289   -8.4271    0.0000 C   0  0  0  0  0  0  0  0  0  0  0  0
   17.7949   -7.9271    0.0000 C   0  0  0  0  0  0  0  0  0  0  0  0
   18.6609   -8.4271    0.0000 *   0  0  0  0  0  0  0  0  0  0  0  0
   17.7949   -6.9270    0.0000 O   0  0  0  0  0  0  0  0  0  0  0  0
   16.9289   -9.4271    0.0000 N   0  0  0  0  0  0  0  0  0  0  0  0
   15.1968   -8.4271    0.0000 O   0  0  0  0  0  0  0  0  0  0  0  0
   16.0628   -9.9271    0.0000 *   0  0  0  0  0  0  0  0  0  0  0  0
   14.3306   -7.9271    0.0000 C   0  0  0  0  0  0  0  0  0  0  0  0
   13.4646   -8.4271    0.0000 C   0  0  0  0  0  0  0  0  0  0  0  0
   14.3306   -6.9270    0.0000 O   0  0  0  0  0  0  0  0  0  0  0  0
   12.5986   -7.9272    0.0000 C   0  0  0  0  0  0  0  0  0  0  0  0
   13.4646   -6.4272    0.0000 C   0  0  0  0  0  0  0  0  0  0  0  0
   12.5986   -6.9271    0.0000 C   0  0  0  0  0  0  0  0  0  0  0  0
   13.4647   -9.4271    0.0000 N   0  0  0  0  0  0  0  0  0  0  0  0
   11.7328   -8.4272    0.0000 O   0  0  0  0  0  0  0  0  0  0  0  0
   11.7324   -6.4273    0.0000 O   0  0  0  0  0  0  0  0  0  0  0  0
   13.4644   -5.4271    0.0000 C   0  0  0  0  0  0  0  0  0  0  0  0
   12.5984   -4.9271    0.0000 O   0  0  0  0  0  0  0  0  0  0  0  0
   12.5989   -9.9272    0.0000 C   0  0  0  0  0  0  0  0  0  0  0  0
   12.5989  -10.9272    0.0000 O   0  0  0  0  0  0  0  0  0  0  0  0
   11.7326   -9.4272    0.0000 C   0  0  0  0  0  0  0  0  0  0  0  0
  2  1  1  6
  2  3  1  0
  3  4  1  0
  4  5  1  0
  4  6  2  0
  3  7  1  1
  2  8  1  0
  7  9  1  0
 10 11  1  0
 10 12  1  0
 11 13  1  0
 12 14  1  0
 13 15  1  0
 14 15  1  0
 11 16  1  6
 13 17  1  1
 15 18  1  1
 14 19  1  1
 20 19  1  0
 22 21  2  0
 23 21  1  0
 16 21  1  0
 10  8  1  6
V    5 *
V    9 *
M  END
>  <ChEBI ID>  (14) 
CHEBI:87075

>  <ChEBI Name>  (14) 
O-(N-acetyl-alpha-D-galactosaminyl)-L-threonine residue

>  <Star>  (14) 
3

>  <Definition>  (14) 
An L-alpha-amino acid residue derived from O-(N-acetyl-alpha-D-galactosaminyl)-L-threonine.

>  <Secondary ChEBI ID>  (14) 
CHEBI:53605

>  <SMILES>  (14) 
C[C@H]([C@@H](C(*)=O)N*)O[C@@H]1[C@@H]([C@H]([C@H]([C@H](O1)CO)O)O)NC(=O)C

>  <Formulae>  (14) 
C12H20N2O7

>  <Charge>  (14) 
0

>  <Mass>  (14) 
304.297

>  <Monoisotopic Mass>  (14) 
304.12705

>  <IUPAC Names>  (14) 
O-(2-acetamido-2-deoxy-alpha-D-galactopyranosyl)-L-threonine residue

>  <Synonyms>  (14) 
-[GalNAc(alpha1->O)]Thr-
GalNAc alpha 1-O-Thr
N-acetyl-alpha-D-galactosaminyl-L-threonine residue
Tn antigen

>  <PubMed citation Links>  (14) 
8226812
8948436
1997327
9509302

>  <RESID Database Links>  (14) 
AA0155

>  <PubChem Database Links>  (14) 
SID: 252162761
SID: 87246476

>  <Rhea Database Links>  (14) 
RHEA:46880
RHEA:52424
RHEA:56196

>  <Last Modified>  (14) 
10 Sep 2021

$$$$

     RDKit          2D

  7  6  0  0  0  0  0  0  0  0999 V2000
    1.0270    2.0375    0.0000 O   0  0  0  0  0  0  0  0  0  0  0  0
    0.3125    0.8000    0.0000 O   0  0  0  0  0  0  0  0  0  0  0  0
    0.3125    1.6250    0.0000 C   0  0  0  0  0  0  0  0  0  0  0  0
   -0.4020    2.0375    0.0000 C   0  0  0  0  0  0  0  0  0  0  0  0
   -1.1164    1.6250    0.0000 C   0  0  0  0  0  0  0  0  0  0  0  0
   -1.8309    2.0375    0.0000 S   0  0  0  0  0  0  0  0  0  0  0  0
   -2.5454    1.6250    0.0000 C   0  0  0  0  0  0  0  0  0  0  0  0
  3  1  1  0
  3  2  2  0
  3  4  1  0
  4  5  1  0
  5  6  1  0
  6  7  1  0
M  END
>  <ChEBI ID>  (15) 
CHEBI:1438

>  <ChEBI Name>  (15) 
3-(methylthio)propionic acid

>  <Star>  (15) 
3

>  <Definition>  (15) 
A thia fatty acid acid consisting of propionic acid with a methylthio substituent at the 3-position; an intermediate in mammalian methionine metabolism in vitro. The simplest known phytotoxin, it is a blight-inducing toxin produced by the cassava pathogen Xanthomonas campestris manihotis.

>  <InChI>  (15) 
InChI=1S/C4H8O2S/c1-7-3-2-4(5)6/h2-3H2,1H3,(H,5,6)

>  <InChIKey>  (15) 
CAOMCZAIALVUPA-UHFFFAOYSA-N

>  <SMILES>  (15) 
CSCCC(O)=O

>  <Formulae>  (15) 
C4H8O2S

>  <Charge>  (15) 
0

>  <Mass>  (15) 
120.17112

>  <Monoisotopic Mass>  (15) 
120.02450

>  <IUPAC Names>  (15) 
3-(methylsulfanyl)propanoic acid

>  <Synonyms>  (15) 
3-(Methylthio)propionic acid
3-methylthiopropanoic acid

>  <Beilstein Registry Numbers>  (15) 
1743054

>  <CAS Registry Numbers>  (15) 
646-01-5

>  <HMDB Database Links>  (15) 
HMDB0001527

>  <KEGG COMPOUND Database Links>  (15) 
C08276

>  <KNApSAcK Database Links>  (15) 
C00001194

>  <PubMed citation Links>  (15) 
100496

>  <Reaxys Registry Numbers>  (15) 
1743054

>  <ACToR Database Links>  (15) 
646-01-5

>  <BKMS-react Database Links>  (15) 
26037
168679
109810
222653
175318
168678
13825

>  <BRENDA Database Links>  (15) 
1.1.3.15
1.13.11.53
1.13.11.54
2.1.1.12
2.1.1.246
2.1.1.247
2.1.1.251
2.1.1.269
2.8.4.1
6.2.1.B11
6.2.1.13
6.2.1.44

>  <BRENDALigand Database Links>  (15) 
175318
26037
168679
109810
222653
168678
13825

>  <ChEMBL Database Links>  (15) 
CHEMBL116212

>  <MetaboLights Database Links>  (15) 
MTBLS6667
MTBLS682
MTBLS6890
MTBLS751
MTBLS7866
MTBLS899
MTBLS1708
MTBLS4567
MTBLS49
MTBLS3129
MTBLS3251
MTBLS5155

>  <NMRShiftDB Database Links>  (15) 
60020622

>  <PDB Database Links>  (15) 
6ijb

>  <PubChem Database Links>  (15) 
CID: 563
SID: 49742713

>  <SABIO-RK Database Links>  (15) 
16210

>  <SureChEMBL Database Links>  (15) 
SCHEMBL342851

>  <Last Modified>  (15) 
13 Jul 2020

$$$$

     RDKit          2D

 33 36  0  0  1  0  0  0  0  0999 V2000
   20.2073  -13.3461    0.0000 C   0  0  0  0  0  0  0  0  0  0  0  0
   21.0685  -12.8488    0.0000 C   0  0  0  0  0  0  0  0  0  0  0  0
   18.4864  -13.3377    0.0000 C   0  0  0  0  0  0  0  0  0  0  0  0
   18.4823  -14.3353    0.0000 C   0  0  0  0  0  0  0  0  0  0  0  0
   19.3511  -12.8473    0.0000 O   0  0  0  0  0  0  0  0  0  0  0  0
   17.6260  -12.8431    0.0000 C   0  0  0  0  0  0  0  0  0  0  0  0
   17.6260  -14.8299    0.0000 C   0  0  0  0  0  0  0  0  0  0  0  0
   19.3385  -14.8341    0.0000 C   0  0  0  0  0  0  0  0  0  0  0  0
   16.7656  -13.3377    0.0000 C   0  0  0  0  0  0  0  0  0  0  0  0
   17.6303  -15.8234    0.0000 O   0  0  0  0  0  0  0  0  0  0  0  0
   16.7656  -14.3353    0.0000 C   0  0  0  0  0  0  0  0  0  0  0  0
   20.2031  -14.3394    0.0000 C   0  0  0  0  0  0  0  0  0  0  0  0
   15.9052  -12.8431    0.0000 O   0  0  0  0  0  0  0  0  0  0  0  0
   16.6243  -16.4052    0.0000 C   0  0  0  0  0  0  0  0  0  0  0  0
   15.7639  -15.9065    0.0000 O   0  0  0  0  0  0  0  0  0  0  0  0
   16.6243  -17.3987    0.0000 C   0  0  0  0  0  0  0  0  0  0  0  0
   14.8994  -16.4052    0.0000 C   0  0  0  0  0  0  0  0  0  0  0  0
   15.7639  -17.8933    0.0000 C   0  0  0  0  0  0  0  0  0  0  0  0
   17.4847  -17.8933    0.0000 O   0  0  0  0  0  0  0  0  0  0  0  0
   14.8994  -17.3987    0.0000 C   0  0  0  0  0  0  0  0  0  0  0  0
   14.0390  -15.9065    0.0000 C   0  0  0  0  0  0  0  0  0  0  0  0
   15.7639  -18.8909    0.0000 O   0  0  0  0  0  0  0  0  0  0  0  0
   14.0390  -17.8975    0.0000 O   0  0  0  0  0  0  0  0  0  0  0  0
   13.1786  -16.4011    0.0000 O   0  0  0  0  0  0  0  0  0  0  0  0
   21.0719  -11.8622    0.0000 C   0  0  0  0  0  0  0  0  0  0  0  0
   21.9281  -13.3586    0.0000 C   0  0  0  0  0  0  0  0  0  0  0  0
   21.9364  -11.3675    0.0000 C   0  0  0  0  0  0  0  0  0  0  0  0
   22.8425  -12.8639    0.0000 C   0  0  0  0  0  0  0  0  0  0  0  0
   22.7968  -11.8705    0.0000 C   0  0  0  0  0  0  0  0  0  0  0  0
   21.9405  -10.3699    0.0000 O   0  0  0  0  0  0  0  0  0  0  0  0
   23.6572  -11.3758    0.0000 O   0  0  0  0  0  0  0  0  0  0  0  0
   22.8051   -9.8795    0.0000 C   0  0  0  0  0  0  0  0  0  0  0  0
   24.5176  -11.8746    0.0000 C   0  0  0  0  0  0  0  0  0  0  0  0
  7 10  1  0
  7 11  2  0
  8 12  1  0
  9 13  1  0
 14 10  1  1
 14 15  1  0
 14 16  1  0
 15 17  1  0
 16 18  1  0
 16 19  1  6
 17 20  1  0
 17 21  1  1
 18 22  1  1
 20 23  1  6
 21 24  1  0
  1 12  1  0
  9 11  1  0
 18 20  1  0
  1  2  1  6
  3  4  2  0
  3  5  1  0
  3  6  1  0
  4  7  1  0
  4  8  1  0
  5  1  1  0
  6  9  2  0
  2 25  2  0
  2 26  1  0
 25 27  1  0
 26 28  2  0
 27 29  2  0
 27 30  1  0
 29 31  1  0
 30 32  1  0
 31 33  1  0
 28 29  1  0
M  END
>  <ChEBI ID>  (16) 
CHEBI:4536

>  <ChEBI Name>  (16) 
diffutin

>  <Star>  (16) 
3

>  <Definition>  (16) 
A  flavan glycoside that is (2S)-flavan substituted by a hydroxy group at position 7, methoxy groups at positions 3' and 4' and a beta-D-glucopyranosyloxy group at position 5 respectively.

>  <InChI>  (16) 
InChI=1S/C23H28O10/c1-29-15-5-3-11(7-18(15)30-2)14-6-4-13-16(31-14)8-12(25)9-17(13)32-23-22(28)21(27)20(26)19(10-24)33-23/h3,5,7-9,14,19-28H,4,6,10H2,1-2H3/t14-,19+,20+,21-,22+,23+/m0/s1

>  <SMILES>  (16) 
COc1ccc(cc1OC)[C@@H]1CCc2c(O[C@@H]3O[C@H](CO)[C@@H](O)[C@H](O)[C@H]3O)cc(O)cc2O1

>  <InChIKey>  (16) 
ZNWIOJJMPZWSQO-YRDUZITASA-N

>  <Formulae>  (16) 
C23H28O10

>  <Charge>  (16) 
0

>  <Mass>  (16) 
464.46240

>  <Monoisotopic Mass>  (16) 
464.16825

>  <IUPAC Names>  (16) 
(2S)-2-(3,4-dimethoxyphenyl)-7-hydroxy-3,4-dihydro-2H-1-benzopyran-5-yl beta-D-glucopyranoside

>  <CAS Registry Numbers>  (16) 
89289-91-8

>  <KEGG COMPOUND Database Links>  (16) 
C09636

>  <KNApSAcK Database Links>  (16) 
C00008768

>  <LIPID MAPS instance Database Links>  (16) 
LMPK12020267

>  <Reaxys Registry Numbers>  (16) 
6549261

>  <Wikipedia Database Links>  (16) 
Diffutin

>  <ACToR Database Links>  (16) 
89289-91-8

>  <MetaboLights Database Links>  (16) 
MTBLS6032
MTBLS1918
MTBLS2096
MTBLS2384
MTBLS581

>  <NMRShiftDB Database Links>  (16) 
70085901

>  <PubChem Database Links>  (16) 
SID: 223439534
CID: 442352

>  <SureChEMBL Database Links>  (16) 
SCHEMBL4740038

>  <Last Modified>  (16) 
04 Jun 2015

$$$$

     RDKit          2D

 19 20  0  0  0  0  0  0  0  0999 V2000
    1.7500   -1.0125    0.0000 C   0  0  0  0  0  0  0  0  0  0  0  0
    2.4645   -0.6000    0.0000 C   0  0  0  0  0  0  0  0  0  0  0  0
    2.4645    0.2250    0.0000 C   0  0  0  0  0  0  0  0  0  0  0  0
    1.0355   -0.6000    0.0000 C   0  0  0  0  0  0  0  0  0  0  0  0
    1.0355    0.2250    0.0000 C   0  0  0  0  0  0  0  0  0  0  0  0
    0.3211    0.6375    0.0000 C   0  0  0  0  0  0  0  0  0  0  0  0
   -0.3934    0.2250    0.0000 C   0  0  0  0  0  0  0  0  0  0  0  0
   -0.3934   -0.6000    0.0000 C   0  0  0  0  0  0  0  0  0  0  0  0
    0.3211   -1.0125    0.0000 C   0  0  0  0  0  0  0  0  0  0  0  0
    1.7500    0.6375    0.0000 C   0  0  0  0  0  0  0  0  0  0  0  0
    1.7500    1.4625    0.0000 O   0  0  0  0  0  0  0  0  0  0  0  0
    2.4645    1.8750    0.0000 C   0  0  0  0  0  0  0  0  0  0  0  0
    3.8934    1.8750    0.0000 C   0  0  0  0  0  0  0  0  0  0  0  0
    4.6079    1.4625    0.0000 N   0  0  0  0  0  0  0  0  0  0  0  0
    5.3224    2.7000    0.0000 C   0  0  0  0  0  0  0  0  0  0  0  0
    5.3224    1.8750    0.0000 C   0  0  0  0  0  0  0  0  0  0  0  0
    6.0368    1.4625    0.0000 C   0  0  0  0  0  0  0  0  0  0  0  0
    3.1789    1.4625    0.0000 C   0  0  0  0  0  0  0  0  0  0  0  0
    3.1789    0.6375    0.0000 O   0  0  0  0  0  0  0  0  0  0  0  0
 10  5  2  0
 10  3  1  0
  4  1  2  0
  1  2  1  0
  2  3  2  0
  9  4  1  0
  5  4  1  0
  6  5  1  0
  6  7  2  0
  7  8  1  0
  8  9  2  0
 10 11  1  0
 11 12  1  0
 12 18  1  0
 18 13  1  0
 13 14  1  0
 14 16  1  0
 16 15  1  0
 16 17  1  0
 18 19  1  0
M  END
>  <ChEBI ID>  (17) 
CHEBI:8499

>  <ChEBI Name>  (17) 
propranolol

>  <Star>  (17) 
3

>  <Definition>  (17) 
A propanolamine that is propan-2-ol substituted by a propan-2-ylamino group at position 1 and a naphthalen-1-yloxy group at position 3.

>  <SMILES>  (17) 
CC(C)NCC(O)COc1cccc2ccccc12

>  <InChI>  (17) 
InChI=1S/C16H21NO2/c1-12(2)17-10-14(18)11-19-16-9-5-7-13-6-3-4-8-15(13)16/h3-9,12,14,17-18H,10-11H2,1-2H3

>  <InChIKey>  (17) 
AQHHHDLHHXJYJD-UHFFFAOYSA-N

>  <Formulae>  (17) 
C16H21NO2

>  <Charge>  (17) 
0

>  <Mass>  (17) 
259.34348

>  <Monoisotopic Mass>  (17) 
259.15723

>  <IUPAC Names>  (17) 
3-(naphthalen-1-yloxy)-1-(propan-2-ylamino)propan-2-ol

>  <Synonyms>  (17) 
1-((1-Methylethyl)amino)-3-(1-naphthalenyloxy)-2-propanol
1-(isopropylamino)-3-(1-naphthyloxy)propan-2-ol
Propanalol
Propanolol
Propranolol
beta-Propranolol
propranololo

>  <INN>  (17) 
propranolol
propranololum

>  <Beilstein Registry Numbers>  (17) 
987417

>  <CAS Registry Numbers>  (17) 
525-66-6

>  <Drug Central Database Links>  (17) 
2303

>  <DrugBank Database Links>  (17) 
DB00571

>  <HMDB Database Links>  (17) 
HMDB0001849

>  <KEGG COMPOUND Database Links>  (17) 
C07407

>  <KEGG DRUG Database Links>  (17) 
D08443

>  <LINCS Database Links>  (17) 
LSM-4329

>  <PubMed citation Links>  (17) 
18259090
24495884
24504055

>  <Reaxys Registry Numbers>  (17) 
987417

>  <Wikipedia Database Links>  (17) 
Propranolol

>  <ACToR Database Links>  (17) 
525-66-6
13013-17-7

>  <BKMS-react Database Links>  (17) 
3905
66047
45500
5606

>  <BRENDA Database Links>  (17) 
1.11.2.1
1.14.13.8
1.14.99.1
1.21.99.4
2.3.1.37
2.3.1.67
2.7.7.15
2.7.11.15
2.7.11.31
2.8.2.1
3.1.1.1
3.1.1.20
3.1.3.1
3.1.3.4
3.1.4.4
3.4.21.68
4.6.1.14
7.6.2.2

>  <BRENDALigand Database Links>  (17) 
3905
66047
5606
45500

>  <BindingDB Database Links>  (17) 
25761

>  <ChEMBL Database Links>  (17) 
CHEMBL27

>  <CompTox Database Links>  (17) 
DTXSID6023525

>  <EnzymePortal Database Links>  (17) 
O43688
O14495
Q04396
O14494

>  <MassBank Database Links>  (17) 
EA017101
EA017102
EA017103
EA017104
EA017105
EA017106
EA017107
EA017108
EA017109
EA017110
EA017111
EA017112
EA017113
EA017114

>  <MetaboLights Database Links>  (17) 
MTBLS630
MTBLS6777
MTBLS7236
MTBLS6831
MTBLS90
MTBLS1455
MTBLS124
MTBLS1906
MTBLS1693
MTBLS4861
MTBLS5195
MTBLS2633
MTBLS2806
MTBLS320

>  <NMRShiftDB Database Links>  (17) 
60025561

>  <Patent Database Links>  (17) 
EP1764111
WO2007089745
WO2007092270
WO2007098387
WO2007098390
WO2007103687
WO2007110753
WO2007117605
WO2007117621
WO2007123883
WO2008122020
WO2008128647
WO2008138912
WO2008157240
EP1184035
EP1438962
EP1512394
EP1586349
EP1602334
EP1639994
EP1661558
EP1661560
EP1681051
EP1685843
EP1700601
EP1702623
EP1710256
EP1717226
EP1726650
EP1754712
EP1790353
EP1829534
EP1832576
EP1839648
EP1862181
EP1894567
EP1902706
EP1939188
EP1946777
EP1967527
EP1990049
EP1990639
GB2227664
GB2264710
GB2349386
US2002082300
US2002115655
US2004068017
US2004147575
US2005043325
US2005065209
US2005085497
US2005119312
US2005124661
US2005137216
US2005176749
US2005182110
US2005261242
US2006154962
US2006154975
US2006189598
US2006258652
US2007179087
US2007190023
US2007184076
US2007184114
US2007185056
US2007191371
US2007191438
US2007202162
US2007203155
US2007207222
US2007232648
US2007238674
US2007243250
US2007243252
US2007244130
US2007248658
US2007248677
US2007249583
US2007258894
US2007259051
US2007259890
US2007264334
US2007269513
US2007270412
US2007270453
US2008161372
US2008255036
US2008262086
US2008280895
US2008292608
WO2005018561
WO2005030758
WO2005047248
WO2005051386
WO2005070207
WO2005072132
WO2005072729
WO2005072732
WO2005073203
WO2005073221
WO2005090304
WO2005105096
WO2005113506
WO2005113519
WO2005116000
WO2005116016
WO2006076509
WO2006078995
WO2006084176
WO2006091697
WO2006122186
WO2006124713
WO2007087367
WO2007087448
WO2007089557
WO2007089667
WO2005042712
GB2140687
US2004142904
US2004254182
US2005069596
US2005288327
US2006030605
US2006135511
US2006148790
US2007184020
US2008255073
US2008293701
WO2005013894
WO2005074933
WO2006031676
WO2006083924
WO2006136402
WO2008122787
WO2008156816
EP1040829

>  <PubChem Database Links>  (17) 
CID: 4946
SID: 26744226

>  <Reactome Database Links>  (17) 
R-HSA-390674
R-HSA-9609310
R-HSA-9611851
R-HSA-9611852

>  <SureChEMBL Database Links>  (17) 
SCHEMBL3955

>  <UniProt Database Links>  (17) 
Q14693
Q04396
O14495
O77408
O01670
P32567
B9W4V6
P18089
P08913
P33261
O43688
O14494

>  <Last Modified>  (17) 
22 Feb 2017

$$$$

     RDKit          2D

 17 18  0  0  1  0  0  0  0  0999 V2000
    5.7811  -12.7779    0.0000 C   0  0  0  0  0  0  0  0  0  0  0  0
    5.7811  -11.1348    0.0000 C   0  0  0  0  0  0  0  0  0  0  0  0
    5.0638  -10.7223    0.0000 C   0  0  0  0  0  0  0  0  0  0  0  0
    6.4883  -12.3654    0.0000 C   0  0  0  0  0  0  0  0  0  0  0  0
    6.4883  -11.5473    0.0000 C   0  0  0  0  0  0  0  0  0  0  0  0
    5.7742  -10.3132    0.0000 C   0  0  0  0  0  0  0  0  0  0  0  0
    7.1953  -11.9598    0.0000 C   0  0  0  0  0  0  0  0  0  0  0  0
    7.1953  -11.1348    0.0000 O   0  0  0  0  0  0  0  0  0  0  0  0
    5.0657  -12.3638    0.0000 C   0  0  0  0  0  0  0  0  0  0  0  0
    5.0707  -11.5473    0.0000 C   0  0  0  0  0  0  0  0  0  0  0  0
    4.2944  -11.2896    0.0000 C   0  0  0  0  0  0  0  0  0  0  0  0
    3.8127  -11.9479    0.0000 C   0  0  0  0  0  0  0  0  0  0  0  0
    4.2864  -12.6079    0.0000 C   0  0  0  0  0  0  0  0  0  0  0  0
    2.9586  -11.9427    0.0000 O   0  0  0  0  0  0  0  0  0  0  0  0
    4.0182  -13.4159    0.0000 C   0  0  0  0  0  0  0  0  0  0  0  0
    4.5830  -14.0533    0.0000 C   0  0  0  0  0  0  0  0  0  0  0  0
    3.1851  -13.5906    0.0000 C   0  0  0  0  0  0  0  0  0  0  0  0
  4  5  1  0
  9  1  1  6
 10  2  1  0
 10  3  1  6
  1  4  1  0
  9 10  1  0
 10 11  1  0
 11 12  1  0
 12 13  1  0
 13  9  1  0
  2  5  1  0
 12 14  1  1
  2  6  1  1
 13 15  1  6
  5  7  1  6
 15 16  1  0
  5  8  1  0
 15 17  2  0
M  END
>  <ChEBI ID>  (18) 
CHEBI:9084

>  <ChEBI Name>  (18) 
Seiricardine A

>  <Star>  (18) 
2

>  <InChI>  (18) 
InChI=1S/C15H26O2/c1-9(2)13-11-6-7-15(5,17)10(3)14(11,4)8-12(13)16/h10-13,16-17H,1,6-8H2,2-5H3/t10-,11-,12+,13+,14+,15+/m1/s1

>  <InChIKey>  (18) 
CGKHVNUMMHTZJY-UMBPPFEGSA-N

>  <SMILES>  (18) 
C[C@@H]1[C@]2(C)C[C@H](O)[C@H]([C@H]2CC[C@]1(C)O)C(C)=C

>  <Formulae>  (18) 
C15H26O2

>  <Charge>  (18) 
0

>  <Mass>  (18) 
238.366

>  <Monoisotopic Mass>  (18) 
238.19328

>  <ACToR Database Links>  (18) 
132970-76-4

>  <MetaboLights Database Links>  (18) 
MTBLS673
MTBLS379
MTBLS5195

>  <NMRShiftDB Database Links>  (18) 
70076458

>  <PubChem Database Links>  (18) 
CID: 183116
SID: 223440956

>  <Last Modified>  (18) 
28 Jul 2014

$$$$

     RDKit          2D

 15 14  0  0  0  0  0  0  0  0999 V2000
   -1.7813   -1.0812    0.0000 C   0  0  0  0  0  0  0  0  0  0  0  0
   -2.4957   -1.4937    0.0000 C   0  0  0  0  0  0  0  0  0  0  0  0
   -2.4957   -2.3188    0.0000 C   0  0  0  0  0  0  0  0  0  0  0  0
   -1.7813   -2.7313    0.0000 C   0  0  0  0  0  0  0  0  0  0  0  0
   -1.0668   -2.3188    0.0000 C   0  0  0  0  0  0  0  0  0  0  0  0
   -1.0668   -1.4937    0.0000 C   0  0  0  0  0  0  0  0  0  0  0  0
   -0.3523   -1.0812    0.0000 C   0  0  0  0  0  0  0  0  0  0  0  0
    1.0766   -1.0812    0.0000 C   0  0  0  0  0  0  0  0  0  0  0  0
    0.3622   -1.4937    0.0000 C   0  0  0  0  0  0  0  0  0  0  0  0
   -0.3523   -2.7312    0.0000 C   0  0  0  0  0  0  0  0  0  0  0  0
    1.0766   -2.7312    0.0000 C   0  0  0  0  0  0  0  0  0  0  0  0
    1.7911   -2.3187    0.0000 C   0  0  0  0  0  0  0  0  0  0  0  0
    2.5056   -1.9062    0.0000 C   0  0  0  0  0  0  0  0  0  0  0  0
    0.3622   -2.3187    0.0000 N   0  0  0  0  0  0  0  0  0  0  0  0
    0.3622   -3.9687    0.0000 Cl  0  0  0  0  0  0  0  0  0  0  0  0
  1  2  2  0
  1  6  1  0
  2  3  1  0
  3  4  2  0
  4  5  1  0
  5  6  2  0
  6  7  1  0
  7  9  1  0
  9  8  1  1
  9 14  1  0
 14 10  1  0
 14 11  1  0
 11 12  1  0
 12 13  3  0
M  CHG  2  14   1  15  -1
M  END
>  <ChEBI ID>  (19) 
CHEBI:9087

>  <ChEBI Name>  (19) 
selegiline hydrochloride

>  <Star>  (19) 
3

>  <InChI>  (19) 
InChI=1S/C13H17N.ClH/c1-4-10-14(3)12(2)11-13-8-6-5-7-9-13;/h1,5-9,12H,10-11H2,2-3H3;1H/t12-;/m1./s1

>  <SMILES>  (19) 
[Cl-].[H][N+](C)(CC#C)[C@H](C)Cc1ccccc1

>  <InChIKey>  (19) 
IYETZZCWLLUHIJ-UTONKHPSSA-N

>  <Formulae>  (19) 
C13H17N.HCl
C13H18NCl

>  <Charge>  (19) 
0

>  <Mass>  (19) 
223.74146

>  <Monoisotopic Mass>  (19) 
223.11278

>  <IUPAC Names>  (19) 
N-methyl-N-[(1R)-1-methyl-2-phenylethyl]prop-2-yn-1-aminium chloride

>  <Synonyms>  (19) 
(-)-phenylisopropylmethylpropynylamine
Selegiline HCl
Selegiline hydrochloride

>  <BRAND Names>  (19) 
Eldepryl
Zelapar

>  <INN>  (19) 
selegiline hydrochloride

>  <Beilstein Registry Numbers>  (19) 
6001504

>  <CAS Registry Numbers>  (19) 
14611-52-0

>  <DrugBank Database Links>  (19) 
DB01037

>  <KEGG DRUG Database Links>  (19) 
D00785

>  <VSDB Database Links>  (19) 
1868

>  <ACToR Database Links>  (19) 
14611-52-0

>  <ChEMBL Database Links>  (19) 
CHEMBL1200904

>  <CompTox Database Links>  (19) 
DTXSID9044584

>  <Patent Database Links>  (19) 
EP1655029
EP1733719

>  <PubChem Database Links>  (19) 
CID: 25058197
SID: 56394973

>  <SureChEMBL Database Links>  (19) 
SCHEMBL41392

>  <Last Modified>  (19) 
28 Jul 2014

$$$$

     RDKit          2D

 36 38  0  0  0  0  0  0  0  0999 V2000
    5.7145    2.4000    0.0000 C   0  0  0  0  0  0  0  0  0  0  0  0
    5.7145    3.2250    0.0000 C   0  0  0  0  0  0  0  0  0  0  0  0
    6.4289    3.6375    0.0000 C   0  0  0  0  0  0  0  0  0  0  0  0
    4.2855    3.2250    0.0000 N   0  0  0  0  0  0  0  0  0  0  0  0
    5.0000    1.9875    0.0000 N   0  0  0  0  0  0  0  0  0  0  0  0
    5.0000    3.6375    0.0000 C   0  0  0  0  0  0  0  0  0  0  0  0
    5.0000    4.4625    0.0000 O   0  0  0  0  0  0  0  0  0  0  0  0
    4.2855    2.4000    0.0000 C   0  0  0  0  0  0  0  0  0  0  0  0
    3.5711    1.9875    0.0000 O   0  0  0  0  0  0  0  0  0  0  0  0
    4.4438    0.0260    0.0000 C   0  0  0  0  0  0  0  0  0  0  0  0
    4.6987    0.8106    0.0000 C   0  0  0  0  0  0  0  0  0  0  0  0
    4.0313    1.2955    0.0000 O   0  0  0  0  0  0  0  0  0  0  0  0
    3.6187    0.0260    0.0000 C   0  0  0  0  0  0  0  0  0  0  0  0
    3.2062   -0.6885    0.0000 O   0  0  0  0  0  0  0  0  0  0  0  0
    3.3638    0.8106    0.0000 C   0  0  0  0  0  0  0  0  0  0  0  0
    2.6494    1.2231    0.0000 C   0  0  0  0  0  0  0  0  0  0  0  0
    1.9349    0.8106    0.0000 O   0  0  0  0  0  0  0  0  0  0  0  0
    0.2849    0.8106    0.0000 O   0  0  0  0  0  0  0  0  0  0  0  0
    1.1099    1.6356    0.0000 O   0  0  0  0  0  0  0  0  0  0  0  0
    1.1099    0.8106    0.0000 P   0  0  0  0  0  0  0  0  0  0  0  0
    1.1099   -0.0144    0.0000 O   0  0  0  0  0  0  0  0  0  0  0  0
   -0.5401    1.6356    0.0000 O   0  0  0  0  0  0  0  0  0  0  0  0
   -0.5401    0.8106    0.0000 P   0  0  0  0  0  0  0  0  0  0  0  0
   -0.5401   -0.0144    0.0000 O   0  0  0  0  0  0  0  0  0  0  0  0
   -1.3651    0.8106    0.0000 O   0  0  0  0  0  0  0  0  0  0  0  0
   -2.0796    0.3981    0.0000 C   0  0  0  0  0  0  0  0  0  0  0  0
   -2.7941    0.8106    0.0000 O   0  0  0  0  0  0  0  0  0  0  0  0
   -3.5085    0.3981    0.0000 C   0  0  0  0  0  0  0  0  0  0  0  0
   -3.5085   -0.4269    0.0000 C   0  0  0  0  0  0  0  0  0  0  0  0
   -4.2230   -0.8394    0.0000 O   0  0  0  0  0  0  0  0  0  0  0  0
   -2.7941   -0.8394    0.0000 C   0  0  0  0  0  0  0  0  0  0  0  0
   -2.7941   -1.6644    0.0000 O   0  0  0  0  0  0  0  0  0  0  0  0
   -2.0796   -0.4269    0.0000 C   0  0  0  0  0  0  0  0  0  0  0  0
   -1.3651   -0.8394    0.0000 O   0  0  0  0  0  0  0  0  0  0  0  0
   -4.2230    0.8106    0.0000 C   0  0  0  0  0  0  0  0  0  0  0  0
   -4.9375    0.3981    0.0000 O   0  0  0  0  0  0  0  0  0  0  0  0
  6  4  1  0
  6  2  1  0
  4  8  1  0
  8  5  1  0
  5  1  1  0
  1  2  2  0
  2  3  1  0
  6  7  2  0
  8  9  2  0
 12 15  1  0
 12 11  1  0
 15 13  1  0
 13 10  1  0
 10 11  1  0
 11  5  1  1
 13 14  1  6
 15 16  1  1
 16 17  1  0
 17 20  1  0
 20 18  1  0
 18 23  1  0
 23 25  1  0
 20 19  2  0
 20 21  1  0
 23 22  2  0
 23 24  1  0
 25 26  1  0
 33 26  1  0
 27 26  1  0
 27 28  1  0
 28 29  1  0
 29 31  1  0
 31 33  1  0
 28 35  1  1
 29 30  1  1
 31 32  1  1
 33 34  1  6
 35 36  1  0
M  END
>  <ChEBI ID>  (20) 
CHEBI:14086

>  <ChEBI Name>  (20) 
dTDP-D-galactose

>  <Star>  (20) 
3

>  <Definition>  (20) 
The D-enantiomer of dTDP-galactose.

>  <InChI>  (20) 
InChI=1S/C16H26N2O16P2/c1-6-3-18(16(25)17-14(6)24)10-2-7(20)9(31-10)5-30-35(26,27)34-36(28,29)33-15-13(23)12(22)11(21)8(4-19)32-15/h3,7-13,15,19-23H,2,4-5H2,1H3,(H,26,27)(H,28,29)(H,17,24,25)/t7-,8+,9+,10+,11-,12-,13+,15?/m0/s1

>  <SMILES>  (20) 
Cc1cn([C@H]2C[C@H](O)[C@@H](COP(O)(=O)OP(O)(=O)OC3O[C@H](CO)[C@H](O)[C@H](O)[C@H]3O)O2)c(=O)[nH]c1=O

>  <InChIKey>  (20) 
YSYKRGRSMLTJNL-VXZFDXESSA-N

>  <Formulae>  (20) 
C16H26N2O16P2

>  <Charge>  (20) 
0

>  <Mass>  (20) 
564.32904

>  <Monoisotopic Mass>  (20) 
564.07576

>  <IUPAC Names>  (20) 
thymidine 5'-[3-(D-galactopyranosyl) dihydrogen diphosphate]

>  <Synonyms>  (20) 
dTDP-D-galactose

>  <KEGG COMPOUND Database Links>  (20) 
C02097

>  <MetaboLights Database Links>  (20) 
MTBLS5943

>  <PubChem Database Links>  (20) 
SID: 11534169
CID: 6857679

>  <Last Modified>  (20) 
08 Apr 2010

$$$$

     RDKit          2D

 24 23  0  0  0  0  0  0  0  0999 V2000
    0.3572    0.2062    0.0000 C   0  0  0  0  0  0  0  0  0  0  0  0
   -0.3572   -0.2063    0.0000 C   0  0  0  0  0  0  0  0  0  0  0  0
   -1.0717    0.2062    0.0000 C   0  0  0  0  0  0  0  0  0  0  0  0
   -1.7862   -0.2063    0.0000 C   0  0  0  0  0  0  0  0  0  0  0  0
    1.7862    0.2063    0.0000 C   0  0  0  0  0  0  0  0  0  0  0  0
    1.7862    1.0313    0.0000 O   0  0  0  0  0  0  0  0  0  0  0  0
    1.0717   -0.2063    0.0000 C   0  0  0  0  0  0  0  0  0  0  0  0
    1.0717   -1.0313    0.0000 N   0  0  0  0  0  0  0  0  0  0  0  0
    0.3572   -1.4438    0.0000 *   0  0  0  0  0  0  0  0  0  0  0  0
    2.5007   -0.2062    0.0000 *   0  0  0  0  0  0  0  0  0  0  0  0
   -6.0730   -0.2063    0.0000 C   0  0  0  0  0  0  0  0  0  0  0  0
   -5.3585    0.2062    0.0000 C   0  0  0  0  0  0  0  0  0  0  0  0
   -4.6440   -0.2063    0.0000 C   0  0  0  0  0  0  0  0  0  0  0  0
   -3.9296    0.2062    0.0000 C   0  0  0  0  0  0  0  0  0  0  0  0
   -3.2151   -0.2063    0.0000 C   0  0  0  0  0  0  0  0  0  0  0  0
   -3.2151   -1.0313    0.0000 O   0  0  0  0  0  0  0  0  0  0  0  0
   -2.5006    0.2062    0.0000 N   0  0  0  0  0  0  0  0  0  0  0  0
   -8.2165    0.2062    0.0000 C   0  0  0  0  0  0  0  0  0  0  0  0
   -7.5020   -0.2063    0.0000 C   0  0  0  0  0  0  0  0  0  0  0  0
   -6.7875    0.2062    0.0000 C   0  0  0  0  0  0  0  0  0  0  0  0
   -6.7875    1.0312    0.0000 S   0  0  0  0  0  0  0  0  0  0  0  0
   -8.9310   -0.2063    0.0000 S   0  0  0  0  0  0  0  0  0  0  0  0
   -9.6455    0.2062    0.0000 C   0  0  0  0  0  0  0  0  0  0  0  0
  -10.3599   -0.2063    0.0000 N   0  0  0  0  0  0  0  0  0  0  0  0
 10  5  1  0
  7  5  1  0
  7  1  1  1
  2  1  1  0
  3  2  1  0
  4  3  1  0
 17  4  1  0
  5  6  2  0
  7  8  1  0
  8  9  1  0
 20 11  1  0
 11 12  1  0
 12 13  1  0
 13 14  1  0
 14 15  1  0
 15 17  1  0
 15 16  2  0
 18 19  1  0
 19 20  1  0
 20 21  1  0
 18 22  1  0
 22 23  1  0
 23 24  1  0
V    9 *
V   10 *
M  END
>  <ChEBI ID>  (21) 
CHEBI:14949

>  <ChEBI Name>  (21) 
N(6)-(S(8)-aminomethyldihydrolipoyl)-L-lysine residue

>  <Star>  (21) 
3

>  <SMILES>  (21) 
C([C@@H](C(*)=O)N*)CCCNC(CCCCC(CCSCN)S)=O

>  <Formulae>  (21) 
C15H29N3O2S2

>  <Charge>  (21) 
0

>  <Mass>  (21) 
347.54178

>  <Monoisotopic Mass>  (21) 
347.17012

>  <EnzymePortal Database Links>  (21) 
Q9PGW5
B0U270
A8G7J2
A2CDX3
A2BZ74
Q7V9I2
B4F0N9
Q87EZ6
P48015
A1JPN6
A7FF19
Q1CB44
B2K0Q5
Q8ZHI6
A9R4K6
Q1CEZ7
A4TIA5
Q666R5
B1JNS6
Q83JU1
Q3YXW5
Q2NRE8
P54260
A7X2S3
Q32BW7
Q0T0Z3
Q5KX76
C5D4A2
A4IQV5
Q7NFJ5
A1WWA3
A6U208
Q2FGI5
Q2FY33
A5IT65
Q2YSZ2
Q5HFM2
A6QH81
P64224
P64225
Q6GGG2
Q6G929
A8Z476
P64226
B9DNN7
Q5HP12
Q8CSF4
Q4L6N7
Q49XY1
Q82JI2
O86567
B4SSE0
B2FR21
Q67N36
Q31KT1
B1XP99
Q5N136
A5GPL8
Q7TTS1
A5GWT1
B9K6R7
Q0I682
Q3AVT0
P54261
C5BM95
Q8DKV6
C5A3P0
Q5JDG3
A8F8M9
A6LP67
Q9WY54
B6YY21
A5IKL0
B0KD95
B0K242
B1L9U1
Q72LB1
Q5SKX0
Q8RCV9
B8GNE2
Q8PI37
Q3BQN6
Q4UXC2
Q8P6T8
Q2P4S5
B2SSQ1
Q5H1X3
B2I6Q1
A3PFH6
A2C5F7
B3QV24
Q8KBJ9
Q7NSJ3
A8APB4
A7FRV3
Q7TUI6
Q7TU18
A2BTR9
Q46I99
A4SDB4
Q15PU4
Q9HTX5
Q3IFV9
Q88CI7
Q88AS0
Q9UZP8
Q8U185
O58888
Q1LHM4
B2UG80
Q8XUA0
Q1AR89
Q21NX7
A4FLG1
B5F5I0
A9MRH0
Q57K60
B5FUG8
B5QXI2
B5RE16
B4TGX5
B4T550
Q5PJG4
A9N3N3
C0PY28
B5BFM0
B4TV24
P64223
P64222
O14110
A8GIS1
A1S967
B8EB47
A3D083
A6WSL3
A9L332
Q12R04
Q07YC7
B0TSG7
A3QHI2
Q8EIQ8
A8H7T1
A4YAE0
B8CK16
A0L105
A8FZK6
Q0HEX0
Q0HZ30
A1RFY6
B1KG89
B2U0S2
Q31WG6
Q5NHP0
A4IZK8
A0KJ03
Q9YBA2
A4SP35
Q0VLA6
A6TMY6
Q5V230
B8D1D7
B0R5Y8
Q9HPJ7
A9B2Q5
P48728
Q5QVA8
A6TDR7
Q1INT8
Q5X8W1
A5I9T7
Q5ZZ93
Q5X0A4
B0SGN8
Q04PM9
Q055P6
B0SQA1
Q72VI6
Q8F935
Q92C06
C1L2Q4
Q71ZX4
B8DFY0
Q8Y7D5
A0AIE9
B1HSN7
P93256
Q60BW3
Q2RH46
Q8CFA2
A0QEZ6
P64221
B8ZQK6
O32955
Q73YK4
P64220
A0PTP8
Q3IN28
B2A2T4
Q9JVP2
Q9K0L8
Q0AEP7
Q82WQ6
Q3JDS3
Q5YZ49
Q8YNF7
Q8CXD9
A6L8T3
P49364
C6D8W9
Q3B5U7
B4SED4
Q7N197
B2RI74
Q7MUG4
B4S437
Q6A9R6
B3QLF1
A1BI02
C3L1M5
C1FTW3
B1IEV3
A7GB83
B1KWD5
Q486J8
C3PHK3
Q4JXU5
Q83B06
A7MR82
Q0K5P5
Q46VZ7
B3R7J7
B7K468
Q47D83
C1D0F7
B8FT33
Q24TH3
A4J2F6
Q54DD3
A7ZR14
B7UHV3
B7MM91
B7LF91
Q8XD32
B5YQ97
B7NHW6
B7MZ57
B7LYG9
C5A0H7
A8A446
Q8FE65
B1IT97
P27248
B7N7E8
B6I738
B1LDA5
Q1R7C6
C5BAT2
A4WE57
Q6D976
B2VF35
B7LPB9
B1YLN6
O49849
A6GXW3
P49363
O23936
Q0RFF6
B0TZJ8
A8LFB7
Q14J42
A7NAH6
Q2A4V3
B2SFM1
A0Q585
Q0BN73
C1F933
A8MEG4
B4RSJ5
B7GH71
O67441
O65396
A7Z6M4
C3P8D5
C3LKQ4
A0RIL1
Q81M06
B7JMV1
Q730W1
B7IXL4
C1ERV0
B7HBA0
B7HNZ1
A7GSN8
B9IXL9
Q818M3
Q634V6
Q5LFT6
Q64WS3
Q9K934
Q6HDT6
Q65HF9
A8FF41
Q5WF30
P54378
Q89YZ6
A6L6X5
A9VH12
Q6MQ03
Q2KYM2
Q7WP31
Q7W1C6
A9I7L6
Q7W0E5
P25285
B1YQQ3
B1JSZ4
B4EF28
A9ACU5
A3MQP5
A2S6F4
Q62FM9
A3P0U5
A3NEZ8
B2JJ71
Q63PL4
Q39KT9
A4JA71
Q9TSZ7
Q3AET7
B3PI82
P28337
Q3AQ17
B3EFX7

>  <PubChem Database Links>  (21) 
SID: 56352937

>  <Reactome Database Links>  (21) 
R-HSA-5693967
R-HSA-5693977

>  <UniProt Database Links>  (21) 
Q63PL4
Q39KT9
A4JA71
Q7NSJ3
A8APB4
A7FRV3
C3L1M5
Q47D83
C1D0F7
P27248
B7N7E8
C1FTW3
B1IEV3
A7GB83
B8FT33
Q24TH3
A4J2F6
B6I738
B1LDA5
B8ZQK6
O32955
Q73YK4
P9WN50
Q54DD3
A7ZR14
B7UHV3
Q6A9R6
A3PFH6
A2C5F7
A2BZ74
Q7V9I2
C1F933
A0KJ03
Q9YBA2
B8EB47
A3D083
A6WSL3
A9L332
Q12R04
Q07YC7
B0TSG7
A4YAE0
B8CK16
A0L105
A4SP35
Q0VLA6
A7Z6M4
C3P8D5
C3LKQ4
A2BTR9
Q46I99
A4SDB4
Q15PU4
Q9HTX5
Q3IFV9
Q88CI7
Q88AS0
A6TMY6
A8MEG4
A0RIL1
Q81M06
B7HNZ1
A7GSN8
B9IXL9
Q818M3
Q9UZP8
Q8U185
O58888
Q1LHM4
B2UG80
Q8XUA0
A9MRH0
Q57K60
B4RSJ5
B7GH71
B7JMV1
Q730W1
Q634V6
Q5LFT6
Q5WF30
P54378
Q89YZ6
A6L6X5
B4T550
Q5PJG4
A9N3N3
C0PY28
B5BFM0
B4TV24
P64223
P64222
O67441
O65396
B7IXL4
C1ERV0
Q64WS3
Q9K934
A9VH12
Q6MQ03
P25285
B1YQQ3
B1JSZ4
B4EF28
A3QHI2
Q8EIQ8
A8H7T1
A8FZK6
Q0HEX0
Q0HZ30
Q3YXW5
Q2NRE8
B7HBA0
Q6HDT6
Q2KYM2
Q7WP31
A9ACU5
Q9TSZ7
Q3AET7
B3PI82
Q3JDS3
Q5YZ49
Q6D976
C6D8W9
Q3B5U7
B4SED4
Q7N197
A8G7J2
A2CDX3
Q65HF9
A8FF41
Q7W1C6
A9I7L6
A3MQP5
A2S6F4
Q62FM9
P28337
Q3AQ17
B1KWD5
Q486J8
C3PHK3
Q1AR89
Q21NX7
A4FLG1
B5F5I0
B5FUG8
B5QXI2
B5RE16
B4TGX5
Q7W0E5
A3P0U5
B3EFX7
B3QLF1
Q4JXU5
Q83B06
B7MM91
B7LF91
Q8XD32
B5YQ97
Q1R7C6
C5BAT2
A4WE57
B2VF35
B7LPB9
A6GXW3
P49363
A3NEZ8
B2JJ71
A1BI02
B3QV24
A7MR82
B7NHW6
B7MZ57
O14110
A8GIS1
A1S967
A8LFB7
Q14J42
A7NAH6
B2SFM1
A0Q585
C5D4A2
A4IQV5
Q8KBJ9
Q0K5P5
Q46VZ7
B7LYG9
C5A0H7
B1YLN6
O49849
O23936
Q0RFF6
Q5V230
B8D1D7
B0R5Y8
A9B2Q5
P48728
Q5QVA8
A6TDR7
A5I9T7
Q5ZZ93
Q04PM9
Q055P6
B3R7J7
B7K468
A8A446
Q8FE65
Q2A4V3
Q0BN73
Q5NHP0
A4IZK8
Q5KX76
Q7NFJ5
A1WWA3
C1L2Q4
Q71ZX4
A0AIE9
B1HSN7
P93256
Q2RH46
Q8CFA2
P9WN51
A0PTP8
B1IT97
Q9HPJ7
Q1INT8
Q5X8W1
Q5X0A4
B0SGN8
B0SQA1
Q72VI6
Q8F935
Q3IN28
B2A2T4
Q9JVP2
Q9K0L8
Q0AEP7
Q82WQ6
Q8YNF7
Q8CXD9
B2RI74
Q7MUG4
B4S437
Q92C06
B8DFY0
Q8Y7D5
Q60BW3
A0QEZ6
P64221
A6L8T3
P49364
B4F0N9
Q7TUI6
Q7TU18
A1RFY6
B1KG89
B2U0S2
Q31WG6
Q32BW7
Q0T0Z3
Q83JU1
Q0I682
Q3AVT0
A4TIA5
Q666R5
B1JNS6
P54261
C5BM95
P54260
A7X2S3
Q8DKV6
C5A3P0
A6U208
Q2FGI5
Q2FY33
Q5JDG3
A5IT65
Q2YSZ2
A8F8M9
A6LP67
Q5HFM2
A6QH81
Q9WY54
B9K6R7
P64224
P64225
B6YY21
A5IKL0
Q6GGG2
Q6G929
B0KD95
B0K242
B1L9U1
Q72LB1
A8Z476
P64226
Q5SKX0
Q8RCV9
B9DNN7
Q5HP12
Q8CSF4
B8GNE2
Q8PI37
Q3BQN6
Q4L6N7
Q49XY1
Q4UXC2
Q8P6T8
Q2P4S5
Q82JI2
O86567
B2SSQ1
Q5H1X3
B4SSE0
B2FR21
B2I6Q1
Q9PGW5
B0U270
Q67N36
Q31KT1
B1XP99
Q87EZ6
P48015
A1JPN6
A7FF19
Q5N136
A5GPL8
Q1CB44
B2K0Q5
Q8ZHI6
Q7TTS1
A5GWT1
A9R4K6
Q1CEZ7
B0TZJ8

>  <Last Modified>  (21) 
27 Jul 2015

$$$$

     RDKit          2D

 34 37  0  0  1  0  0  0  0  0999 V2000
    0.4677   -3.3408    0.0000 C   0  0  0  0  0  0  0  0  0  0  0  0
    1.0808   -2.7888    0.0000 O   0  0  0  0  0  0  0  0  0  0  0  0
   -0.3169   -3.0859    0.0000 C   0  0  0  0  0  0  0  0  0  0  0  0
   -0.4884   -2.2789    0.0000 C   0  0  0  0  0  0  0  0  0  0  0  0
   -1.2731   -2.0240    0.0000 C   0  0  0  0  0  0  0  0  0  0  0  0
   -1.9405   -2.5089    0.0000 C   0  0  0  0  0  0  0  0  0  0  0  0
   -2.6079   -2.0240    0.0000 N   0  0  0  0  0  0  0  0  0  0  0  0
   -2.3530   -1.2394    0.0000 C   0  0  0  0  0  0  0  0  0  0  0  0
   -1.5280   -1.2394    0.0000 C   0  0  0  0  0  0  0  0  0  0  0  0
   -1.1155   -0.5249    0.0000 C   0  0  0  0  0  0  0  0  0  0  0  0
   -2.7655   -0.5249    0.0000 C   0  0  0  0  0  0  0  0  0  0  0  0
   -2.3530    0.1896    0.0000 C   0  0  0  0  0  0  0  0  0  0  0  0
   -1.5280    0.1896    0.0000 C   0  0  0  0  0  0  0  0  0  0  0  0
   -3.5905   -0.5249    0.0000 O   0  0  0  0  0  0  0  0  0  0  0  0
   -2.7655    0.9041    0.0000 O   0  0  0  0  0  0  0  0  0  0  0  0
    0.1944    0.1426    0.0000 C   0  0  0  0  0  0  0  0  0  0  0  0
   -0.2905   -0.5249    0.0000 C   0  0  0  0  0  0  0  0  0  0  0  0
    0.1944   -1.1923    0.0000 N   0  0  0  0  0  0  0  0  0  0  0  0
    0.9791   -0.9374    0.0000 C   0  0  0  0  0  0  0  0  0  0  0  0
    0.9791   -0.1124    0.0000 C   0  0  0  0  0  0  0  0  0  0  0  0
    1.6935    0.3001    0.0000 C   0  0  0  0  0  0  0  0  0  0  0  0
    1.6935   -1.3499    0.0000 C   0  0  0  0  0  0  0  0  0  0  0  0
    2.4080   -0.9374    0.0000 C   0  0  0  0  0  0  0  0  0  0  0  0
    2.4080   -0.1124    0.0000 C   0  0  0  0  0  0  0  0  0  0  0  0
   -0.0605    0.9272    0.0000 C   0  0  0  0  0  0  0  0  0  0  0  0
    0.4915    1.5403    0.0000 C   0  0  0  0  0  0  0  0  0  0  0  0
   -0.5704    2.4964    0.0000 O   0  0  0  0  0  0  0  0  0  0  0  0
    0.2366    2.3249    0.0000 C   0  0  0  0  0  0  0  0  0  0  0  0
    1.2985    1.3687    0.0000 N   0  0  0  0  0  0  0  0  0  0  0  0
    1.8819    1.9521    0.0000 *   0  0  0  0  0  0  0  0  0  0  0  0
    0.6392   -4.1478    0.0000 *   0  0  0  0  0  0  0  0  0  0  0  0
    0.7886    2.9380    0.0000 *   0  0  0  0  0  0  0  0  0  0  0  0
   -0.9300   -3.6379    0.0000 N   0  0  0  0  0  0  0  0  0  0  0  0
   -0.9300   -4.4629    0.0000 *   0  0  0  0  0  0  0  0  0  0  0  0
  1  2  2  0
  1  3  1  0
  3  4  1  1
  3 33  1  0
  4  5  1  0
  5  6  2  0
  5  9  1  0
  6  7  1  0
  7  8  1  0
  8  9  2  0
  8 11  1  0
  9 10  1  0
 10 13  2  0
 11 12  1  0
 12 13  1  0
 31  1  1  0
 14 11  2  0
 15 12  2  0
 25 16  1  0
 16 17  2  0
 16 20  1  0
 17 18  1  0
 18 19  1  0
 19 20  2  0
 19 22  1  0
 20 21  1  0
 21 24  2  0
 22 23  2  0
 23 24  1  0
 10 17  1  0
 26 25  1  1
 26 29  1  0
 26 28  1  0
 28 27  2  0
 28 32  1  0
 29 30  1  0
 33 34  1  0
V   30 *
V   31 *
V   32 *
V   34 *
M  END
>  <ChEBI ID>  (22) 
CHEBI:20251

>  <ChEBI Name>  (22) 
4-(L-tryptophan-2-yl)-L-tryptophyl quinone group

>  <Star>  (22) 
3

>  <SMILES>  (22) 
C(=O)([C@H](CC1=CNC2=C1C(=CC(C2=O)=O)C3=C(C[C@H](N*)C(=O)*)C4=C(N3)C=CC=C4)N*)*

>  <Formulae>  (22) 
C22H16N4O4

>  <Charge>  (22) 
0

>  <Mass>  (22) 
400.38700

>  <Monoisotopic Mass>  (22) 
400.11715

>  <Synonyms>  (22) 
4'-(L-tryptophan)-L-tryptophyl quinone
4'-tryptophan-tryptophylquinone
4-(2'-tryptophyl)tryptophan-6,7-dione
TTQ
alpha,alpha'-diamino-6',7'-dihydro-6',7'-dioxo-(2,4'-bi-1H-indole)-3,3'-dipropanoic acid
tryptophan tryptophylquinone residue

>  <COMe Database Links>  (22) 
BIM000262

>  <RESID Database Links>  (22) 
AA0149

>  <EnzymePortal Database Links>  (22) 
P22619
P22641
Q59543
Q50425
P00372
P23006
P29894
Q59542
Q50420
Q49124

>  <IntEnz Database Links>  (22) 
EC 1.4.99.3
EC 1.4.98.1
EC 1.4.9.1

>  <PubChem Database Links>  (22) 
SID: 14717926

>  <UniProt Database Links>  (22) 
P84887
Q51658
Q49129
Q50422
Q50234
Q49124
Q50420
Q59542
P29894
P23006
P00372
Q50425
Q59543
P22619
P22641
Q49128
Q50426
Q50233

>  <Last Modified>  (22) 
06 Jun 2016

$$$$

     RDKit          2D

 26 27  0  0  1  0  0  0  0  0999 V2000
   15.7288   -8.0952    0.0000 C   0  0  0  0  0  0  0  0  0  0  0  0
   16.2138   -8.7627    0.0000 C   0  0  0  0  0  0  0  0  0  0  0  0
   15.7288   -9.4301    0.0000 N   0  0  0  0  0  0  0  0  0  0  0  0
   14.9442   -9.1752    0.0000 C   0  0  0  0  0  0  0  0  0  0  0  0
   14.9442   -8.3502    0.0000 C   0  0  0  0  0  0  0  0  0  0  0  0
   14.2298   -7.9376    0.0000 C   0  0  0  0  0  0  0  0  0  0  0  0
   14.2297   -9.5876    0.0000 C   0  0  0  0  0  0  0  0  0  0  0  0
   13.5152   -9.1750    0.0000 C   0  0  0  0  0  0  0  0  0  0  0  0
   13.5152   -8.3501    0.0000 C   0  0  0  0  0  0  0  0  0  0  0  0
   16.4937   -5.7414    0.0000 O   0  0  0  0  0  0  0  0  0  0  0  0
   17.0457   -6.3545    0.0000 C   0  0  0  0  0  0  0  0  0  0  0  0
   17.8527   -6.1830    0.0000 *   0  0  0  0  0  0  0  0  0  0  0  0
   16.7907   -7.1391    0.0000 C   0  0  0  0  0  0  0  0  0  0  0  0
   17.3428   -7.7522    0.0000 N   0  0  0  0  0  0  0  0  0  0  0  0
   15.9838   -7.3106    0.0000 C   0  0  0  0  0  0  0  0  0  0  0  0
   13.5155   -5.8751    0.0000 C   0  0  0  0  0  0  0  0  0  0  0  0
   12.7957   -5.4721    0.0000 N   0  0  0  0  0  0  0  0  0  0  0  0
   14.2065   -5.4721    0.0000 C   0  0  0  0  0  0  0  0  0  0  0  0
   14.2065   -4.6371    0.0000 O   0  0  0  0  0  0  0  0  0  0  0  0
   14.9263   -5.8751    0.0000 *   0  0  0  0  0  0  0  0  0  0  0  0
   13.5155   -6.7001    0.0000 C   0  0  0  0  0  0  0  0  0  0  0  0
   14.2299   -7.1126    0.0000 S   0  0  0  0  0  0  0  0  0  0  0  0
   14.2296  -10.4126    0.0000 O   0  0  0  0  0  0  0  0  0  0  0  0
   12.8008   -9.5875    0.0000 O   0  0  0  0  0  0  0  0  0  0  0  0
   12.0867   -5.8939    0.0000 *   0  0  0  0  0  0  0  0  0  0  0  0
   17.0878   -8.5368    0.0000 *   0  0  0  0  0  0  0  0  0  0  0  0
  1  2  2  0
  1  5  1  0
  2  3  1  0
  3  4  1  0
  4  5  2  0
  4  7  1  0
  5  6  1  0
  6  9  2  0
  7  8  1  0
  8  9  1  0
 11 10  2  0
 12 11  1  0
 13 11  1  0
 13 14  1  0
 13 15  1  1
  1 15  1  0
 16 17  1  0
 18 16  1  0
 19 18  2  0
 20 18  1  0
  6 22  1  0
 16 21  1  6
 21 22  1  0
  7 23  2  0
  8 24  2  0
 17 25  1  0
 14 26  1  0
V   12 *
V   20 *
V   25 *
V   26 *
M  END
>  <ChEBI ID>  (23) 
CHEBI:20252

>  <ChEBI Name>  (23) 
cysteine tryptophylquinone residue

>  <Star>  (23) 
3

>  <Definition>  (23) 
An amino-acid residue derived from cysteine tryptophylquinone.

>  <SMILES>  (23) 
C1(=CNC2=C1C(=CC(C2=O)=O)SC[C@H](N*)C(=O)*)C[C@@H](C(=O)*)N*

>  <Formulae>  (23) 
C14H11N3O4S

>  <Charge>  (23) 
0

>  <Mass>  (23) 
317.32000

>  <Monoisotopic Mass>  (23) 
317.04703

>  <Synonyms>  (23) 
CTQ residue
cysteine tryptophylquinone residue

>  <PubMed citation Links>  (23) 
12427036
11717396
12974623

>  <PubChem Database Links>  (23) 
SID: 163425656

>  <UniProt Database Links>  (23) 
Q8VUS8
P0A181
P0A182

>  <Last Modified>  (23) 
17 Dec 2013

$$$$
ChEBI
     RDKit          2D

  7  6  0  0  1  0  0  0  0  0999 V2000
   12.7875  -14.8806    0.0000 C   0  0  0  0  0  0  0  0  0  0  0  0
   12.7875  -14.0556    0.0000 O   0  0  0  0  0  0  0  0  0  0  0  0
   12.0731  -15.2931    0.0000 C   0  0  0  0  0  0  0  0  0  0  0  0
   12.0731  -16.1181    0.0000 N   0  0  0  0  0  0  0  0  0  0  0  0
   11.3586  -14.8806    0.0000 C   0  0  0  0  0  0  0  0  0  0  0  0
   13.5020  -15.2931    0.0000 *   0  0  0  0  0  0  0  0  0  0  0  0
   11.3586  -16.5306    0.0000 *   0  0  0  0  0  0  0  0  0  0  0  0
  1  6  1  0
  2  1  2  0
  3  1  1  0
  3  4  1  0
  3  5  1  6
  7  4  1  0
V    6 *
V    7 *
M  END
>  <ChEBI ID>  (24) 
CHEBI:29949

>  <ChEBI Name>  (24) 
D-alanine residue

>  <Star>  (24) 
3

>  <SMILES>  (24) 
C(*)(=O)[C@H](N*)C

>  <Formulae>  (24) 
C3H5NO

>  <Charge>  (24) 
0

>  <Mass>  (24) 
71.07794

>  <Monoisotopic Mass>  (24) 
71.03711

>  <Synonyms>  (24) 
-D-Ala-
D-Ala
D-alanine
D-alanine residue
D-alanyl
DAla

>  <PDBeChem Database Links>  (24) 
DAL

>  <RESID Database Links>  (24) 
AA0191

>  <PubChem Database Links>  (24) 
SID: 8146406

>  <SABIO-RK Database Links>  (24) 
14812
10331
11816
12277
862
1389
7268
8126
9639
9755
9772
1388
10354
10339
9613
10382
13006
11811
11810
11812
11814
11815
11817
11818
13438
16058
7269
7274
1391
9627
9625
9619
9633
9616
9605
9631
9621
9630
9611
3037
4065
11804
11813
11809
13579
14556
5450
857

>  <UniProt Database Links>  (24) 
D2Z027
D2Z028
D2Z030
D2Z024
D2Z026
P9WQ87
P12998
Q88EV6
Q87XJ6
Q98KB6
P35660
A1UTC2
Q6G2Q8
B5RR18
Q2SZI1
Q1QVG9
Q97F58
Q8NQV2
A8LS60
Q47758
Q7NNW1
A6T2F6
Q28NP2
Q98JS0
Q8Z9G7
Q8ZRU1
B8J8F1
Q2IG33
Q6FZ74
A9IWA2
A1QYZ4
A4JB96
A7FPH8
C3L065
Q4JUX6
Q47823
Q47827
Q5FUJ2
Q0BV28
A6W7R2
B2GFL1
P0A1F1
Q83MF7
A7HH70
Q1LT82
A5EMF5
A4YRU4
Q13TZ4
B9MLC6
A6LQY8
B1VG49
B6J7Z1
B2VD93
Q2NCY7
A0M4U5
Q7VMY2
P0A1F0
P0A6K0
Q8PCJ8
B0CEL5
B9KHS3
Q5PBK2
Q6MQ94
B2IGG3
O51927
P59435
A4XJ89
A8Z6L3
B2UY33
B2TPY4
A9KGD2
A9N8L3
A7HNE8
Q4QLF6
A5UCW6
Q8PDW3
A1TKD3
B4UES4
Q3MGA0
B8DVN7
B1YSS6
A8FLL1
A5HYZ6
C1FSC4
Q83BZ9
B0S093
A5FGN3
A5UIR4
Q81IU1
Q6F705
B7GV75
B7ICE3
O66806
Q5P6Z8
A0ZZT4
Q1BZG1
B1JV80
A7H451
Q9PPC2
B1IEG9
Q0K6M6
A6GXD5
P44405
Q81D33
Q89PS5
B2I1J3
A1R7J5
B8HAC4
B3DTT9
Q8G7C4
A0K488
A1VZE6
Q5HUZ4
A7GAL4
Q46WZ6
B3R6V7
B0TVX5
Q2J6Y1
B8F3B8
A1WYU0
Q89GA7
Q8YI63
B0VNZ7
A3M9X9
A0JXX3
A8HZA8
B7GU04
Q7VRX1
B4E6J0
B9KFX8
B1KV16
B8I590
B7K991
Q14JP9
A7NET9
B8CWI5
C4K734
Q8YHR9
Q8G044
Q8FZP5
B0V9F7
B6YQA7
A1K3U8
Q492J5
D2Z025
Q0BIJ9
A9AI94
Q3ACF5
B9E560
B7JZB2
Q47AA6
Q2A182
A0Q4A6
Q17XZ1
Q7VJW2
Q7NV72
Q7NQ01
A5FUL3
B9MFR0
A7Z1L3
C3PB71
Q2KVG4
Q0SNW3
A3MR65
Q9A5A9
A5N1C9
Q1IWG9
Q9RXF1
Q0BK01
Q5NI96
B0TAZ6
Q8XKS9
Q8XM71
Q898Z5
A1WC04
A3MY92
C3LHM9
Q81Q29
Q7WFS4
A2S5U3
Q62GS9
B0T824
A0Q323
A9BUK8
A4J053
B6JLX1
Q897P8
Q8X9Y6
B3GZL0
A7GKE0
Q5LI31
O51218
B7J1D2
A1V0R6
Q3AS55
B3EDF4
Q0STC3
A3DGS7
C6C0B2
B1I3W6
Q8RDQ4
Q1CTD3
Q9ZLA5
P0A6J9
Q8FL63
B0BRH9
A6VQN1
Q64Z37
Q9KCF0
Q65N65
B5RL25
A3NZL3
Q3JNE1
B3QMS4
Q47VR1
B8IZ52
Q316H9
B5EBQ4
Q5L3H2
B2UT94
P56191
Q8FKE3
P07862
A0KKW8
A4SN40
A8FA55
Q662G4
B2RZR0
A3NDW2
B3EQ14
B5Y8C8
C3PFZ9
C4XRH9
Q6ASD8
B3E3X9
A9B406
A4G8T6
P0A6J8
Q9LCT6
Q8UDN3
Q5WDW9
P96612
Q7W4B6
B2JHF8
A1BH06
B3QU24
Q6NHK6
A4J5G8
Q72F80
Q748D8
C6DZK9
Q0I1D1
B0US69
Q9HWI0
Q88N74
Q87WY7
Q0VS00
Q0A6K5
Q8A1F3
A6KXU3
A9I4V9
Q7VUQ5
B2SYX3
Q63QJ9
Q8KCR8
Q8FPQ9
A4QDT4
A1VGU5
A5EY21
A4IJS8
A5G8J7
Q0C570
Q5R0N1
B0S9U5
Q04RK6
Q1GZ04
B3DVV9
Q5F6M0
B4RQC3
B4SAI2
A1AU58
Q46JG5
A4SE28
Q052B5
B1ZGP9
Q9JSZ9
A5D2F9
Q4FPK8
Q15Q19
Q5FMN6
Q03QZ9
B0SS77
Q72R93
A2SCY7
Q9K0Y0
A9BI46
Q1I5C0
Q3IFY2
A4XQS6
Q03CR5
B3W7C1
Q8F4I2
B1MWZ3
B1LXZ1
B0UB90
B8ETM9
A1KVL1
Q0AJE4
Q7N149
Q3K746
Q1G7Q5
Q04CI2
Q48745
Q03ZI1
B0JHC1
Q82VS0
Q2Y641
A1VST4
B1XT11
B0KFS4
A4VII0
B2GAV5
Q92DG5
Q2RJD5
A0QJB2
Q3J792
A6Q3Z7
Q12EL3
A5WCU0
Q046V3
A8YWP6
Q721W2
Q8Y8P1
Q7TXH9
Q5YRY7
B2J0J6
A4SV76
B2RIT4
Q1LIM8
B2UCX5
Q74LS5
A0AGY4
A1KMX5
A4TE25
Q8YY71
Q7MWA2
B4S8W3
Q8XVI9
Q9CIL5
A2RI72
B9E8D0
Q2W0H0
Q9CBS0
Q2G992
Q8ERJ6
A3PEE0
Q92NM4
Q031X8
Q88UV8
A0L5M8
Q73VJ4
A0QUZ7
A6WZQ9
Q04G13
A2C472
A8G6B7
C3MEM6
C0ZXN9
A5VIS1
Q1WT60
Q65RY9
A1U3F6
A3PXS0
A1UEB6
B6JB38
A6LFD0
A2CB75
Q21SX1
Q38ZM8
Q0AMX1
Q9ZGN0
A7HVV0
A2BY13
C1B2N8
C1D5L4
Q1MQJ1
A6VYJ6
Q1BAP6
A5U6Z2
P57819
Q319I3
Q7VAS4
Q07PS7
Q211U3
Q5X1S8
A5IAW4
Q11GS8
B7KSC6
P9WP30
P9WP31
Q6D0I5
C6DEU1
B4ETX3
Q2RVU7
A3PHT2
Q5ZSA7
Q604W0
A0PQ03
A1T708
Q03EM9
Q7V8L9
Q7V0F6
Q3J4L8
A4WQD9
Q5WTI9
A9VWV8
B2A2Z6
Q3A2G9
Q3B391
A2BSM7
Q0S2F6
Q2FF43
Q2FWH3
Q99Z34
C1CFP2
C1CM10
B0KBI1
Q87HS0
Q4UKP1
B0TRK1
A5IUM9
Q04J98
P0DA50
C1CST6
Q30R95
B0K485
B1L9P4
B7VRZ7
A8F110
Q5LU57
A3QEV1
Q2YUH1
Q5HEB7
B5E721
A6Q6M8
Q72IA9
Q21MG7
Q5PDC6
Q8EEZ2
A8H5A5
A6QIS7
P63891
Q5XB93
Q8P0C4
Q31KL4
A0LQR5
Q5SHZ3
Q8R778
Q1RHX2
Q1GIU7
A4Y6E2
P63892
Q6GEZ1
Q1JAX7
Q2JXY2
B5YFT1
B5BLC4
B8CMV8
A0KXL7
Q6G7M7
A8Z4Y6
Q1JL27
Q1JG50
Q2JJV2
B1XNQ0
Q31I42
Q3SMH0
A1AX29
A8FUK8
Q8NVH8
Q1J5W7
Q5N1A0
C4L8J2
C4K126
Q0HIB5
B9DMH1
Q5HMD8
A2RDW0
B1I733
A5GML7
Q7U5Q9
Q73JN2
O83676
B8E569
Q0HUL2
A1RK54
Q8CRP5
B8ZM66
Q48SP8
A5GRJ7
Q0IC71
B2S3Q9
B0BWS2
B1KI99
Q4L7W2
Q49Z31
P0CB57
Q3AV89
Q10X06
Q83I36
A6WMZ6
Q3K1T9
P0DA51
B2IRS6
Q3ALB5
Q0AXT9
Q83G28
A6UB80
Q2NUK1
Q8E640
Q8E0G6
B5XM63
P73632
A1WRL3
A5CW55
Q68XC0
A9L0H9
Q023Q5
Q82JS5
Q9ZBR9
Q8DNV5
C0MCV8
B7IGP0
Q8DLH0
A5F083
Q1GRY2
A5VDC2
C0M8S4
A3CLS3
Q5LYJ2
A8F8C8
A7N512
Q9KM17
Q92IT7
Q163J4
A7X4R6
B4U1Z2
A8AY66
Q5M355
A6LKA2
C3LVI8
Q080C3
A6U3G9
B1VYZ5
P95803
Q03JC6
B9DUS0
P46805
A5IKG2
Q5E006
B5ETW5
H8L902
Q87AG1
A7FM64
Q1C216
Q8D781
B2K4E8
Q7ME85
Q8D2Y5
Q8ZIE7
A9R122
Q73IQ8
B3CPK8
Q1CMM5
A4TQ81
Q7MA71
Q66EK3
Q5GS66
B1JK79
C0R5F9
Q9RNM9
A7IC40
Q9PF79
P05422
P05421
O93227
O93456
P86633
Q8XDJ8
P59238
P76008
O34851
Q9HTZ1
P0AD71
P07582
Q6LX42
Q3J3L4
A4WRF5
Q1GFQ4
Q0HF52
B9KQC8
C3PMD1
A8M4B3
Q0HYW0
I6LNY0
B9WZ64
A4XBI0
A1SA53
Q4ZZW2
A8GM54
B8E9P2
A1RNI3
A8GW96
Q9ZDS6
A8EXZ8
A1S6V2
A8GRC1
C3PMU6
Q12LP2
A8GMP8
Q8PPA6
P0AD70
B1KHY4
A4VQM5
A5WDJ3
Q1RGU4
A8EXF8
A3D8P9
Q1LNJ3
Q92JD9
A6WJ85
B2UAX2
B2TX62
Q31TW1
Q8XZM4
Q4UNC8
A9L126
Q92R07
Q9ZE52
Q12RW2
Q221R3
Q07XT3
A3QI45
Q327W0
Q2RXD1
C4K1B0
Q8EAI6
A8H8K6
B0BW55
A8GQR1
A4Y3F6
Q1I2V7
B8CIQ9
Q4K3T9
Q68XW3
A0KT33
Q163V1
A8FRA1
P33162
A3PIR7
P45494
Q821S4
Q9PLG1
Q9Z701
O84767
Q01886
Q2FF55
A6QIR5
B9DMI9
Q5HME5
A9ESU7
Q2NTA8
P0AAE1
P0AAE0
O31616
Q49Z24
Q3JZK5
C0M6I5
B4U178
B1I755
C1CM34
C1CSV9
A5CWE3
B7VI70
Q9PF26
Q87AK1
Q1JKA0
Q1JF94
B8ZMG1
Q48RM8
P0A2W8
A6QC54
A9QYT2
A8AVC4
P0CZ57
Q67K79
Q7MH94
Q8D2H8
Q8DSF4
Q99Y98
A0LFQ9
Q8E3M9
Q04J74
B5XI21
P0CZ56
P54918
B5E745
Q5XAA4
P0A2W9
C1C8T6
A4W3N5
Q47LN3
Q8PGD0
Q3BNX4
Q8NZK4
C0MEB7
B5YIM9
Q4UQB5
A4VXD9
Q3SH36
Q8P4R0
Q8DY10
B8GNS7
Q5LY71
Q73NQ7
Q56346
O86786
Q1J545
Q5M2S7
Q2P7U1
Q1JA50
A2RCT3
Q03IX8
B9DVI3
B2S3S0
Q5H522
C1CFR7
C5CX88
Q8CNK7
A1WQY3
Q9UW18
P58736
Q8FB20
Q8X5V2
P10725
Q97LR2
P0A6B4
Q86I79
P63511
P99090
Q6GFV1
Q6G8H7
P08750
P0AEB4
P21850
Q6FFR5
Q1BY09
B1JXT8
A9BU40
A7ZKW0
A6TAW4
Q2W3H2
B7H2E9
A0K5P0
B7UQ73
B7MK86
Q1H378
B7I1Q9
B0VNF5
B4EAP1
Q0BH74
B7LGU9
P0A6J7
B8IJ86
B1M860
A3M0Z0
B0V6N4
A9ADT7
B7NJF1
B0UBI8
P54692
Q8NW24
P0AEB3
P0AEB2
Q05523
O07597
Q5HNG0
P44466
P35150
P19938
Q8CS41
P24228
P54694
P45161
P39844
P08506
Q92B90
P33013
P37604
G2JZ74
P38422
Q7N3Z6
Q71Z49
P39042
Q9HTQ0
P0DJL9
P39045
P15555
P54693
Q5HF24
B1JLH4
P30144
P96618
P75719
P77551
Q9FKS8
Q6LX41
B8IEC7
A2SLS6
Q5F788
Q9JTA6
Q9JYC4
A5D4I1
P0A1A3
O59828
Q98F05
Q8Z688
B0VNF6
Q5P3K0
A1KCI5
A2SB51
Q62JA4
Q8XM22
Q0SUN0
Q890X1
Q1IYK9
Q9RVE3
A9BR02
A0Q5X2
Q0BL88
C4K4C4
Q04C45
B2GA65
Q1MSD5
Q5X709
A5IGG9
C1L1F6
Q721S9
B8DG73
A1KV59
Q9KUY6
Q87L78
Q8DCL0
P06191
Q9KFF9
A1V591
B5Y9T8
B8J2K3
Q17WC4
Q5ZXJ2
B0UL34
Q0AFV7
Q82UR4
Q3V7I5
Q9F9L1
A1VIH8
P0A6B6
A5G2H9
B9MAN2
Q9S5V6
B2T5L6
Q8FS13
A8ZRV0
Q5NH94
A4IZ25
Q8RGA2
B6JMG2
Q8ZJ10
Q9EZ08
B7J911
C5BZY7
A7ZCL1
A7GZM8
A4QBT0
A4J8G6
B5EBG2
B5Z7U5
Q5WYG1
P0DJL8
Q2Y763
Q15NL4
Q932V0
Q5HG21
B5EP95
Q2KXU7
O51182
A8FLV4
Q72DH4
Q5L3G4
Q1CST1
A0KJP1
A3MHR1
A2S4P8
B7MTW7
Q5F5W1
B4RR07
A4SNB0
B9JI94
Q62M46
A1V6K0
B7LXA3
C4ZTN0
A9M3T2
P58739
B9K2I7
A3NXU9
Q3JQ00
B1XA76
A7ZZC3
A8I711
C1DJZ7
A3NC12
Q0TII6
A1KRK7
A6WYV7
B2JF25
P0A6J6
B1IUA3
A1B072
Q6D4N9
A9IP97
B2T612
P0A6J5
C6DGU9
B4RBL4
B2SDA2
Q63S25
Q39IE1
B7N3Z3
B6I9Q0
Q2YIL0
Q579E2
Q2SY06
C5B9W5
A9MCK4
C0RM68
A4JCJ3
Q13VE3
A4WBF2
O30745
Q98F08
A5VVJ0
Q1QXY5
Q7NWR6
B2VJ51
Q88CB1
A9WVT6
A8AFS0
B7LSJ5
Q0BUV2
B1YV52
A7MKD3
Q479B1
B5XQ81
Q8ZP17
A8GFF7
A4TJC4
Q66AQ6
B2TZB5
Q31ZN0
B4EXU2
Q48PZ1
Q32H27
Q0T5L2
Q7UCT6
Q1I2V6
A4XNV3
Q3Z2V9
A6UB96
A5WAY8
B0KQ74
A5V4F9
B4SIE4
B1J4P3
B2FLQ1
A5F3D0
Q4ZZW4
A4VGT8
C3LT39
Q9RAE6
Q2IZZ7
B7VMK8
A3PRF6
Q3IXK6
Q3BNX3
B5F4E4
Q4UQB4
B0RWG2
A9MP60
Q57NK9
A7IHQ4
B5FTN1
B5R2W7
B2I8Y3
Q9PF27
B4TKD3
B4SUJ5
Q5PCU1
B0U4V3
A1JQN9
A9MVW7
A7FI92
Q1C7V0
C0Q330
B5BI50
B2K3Q3
B4TXX3
Q8Z687
A9R9D3
Q1CJ86
Q8RAK6
P83944
Q9P5N3
Q48PY9
Q046E7
B1Y2H6
A0AH04
A0QKR9
Q3JEJ2
P0A6B5
P58737
P63482
B7J192
B8DRL1
Q39RJ8
Q9ZKQ9
Q6A5H2
Q7V9Z2
P63483
Q8R860
A1W2F6
A9IU63
A7H3E3
Q8RSU9
A1VF31
B2UU89
O25595
A8YXI3
Q75FF2
B9E8C3
A6Q1W0
Q93HP9
Q9ZAH5
Q9KSE5
A3MYX4
Q2YIU9
Q9PP26
B6J6U2
A5EW54
Q9CH94
Q9L888
Q8YU96
Q12H34
Q5HED1
P94494
Q97DY9
Q87HG4
A6VP88
Q0VMG4
A9MCK3
A1VZN9
B6J0J1
A8LRT3
P10724
Q9RLU5
Q65TC1
A1U388
A6W1F2
P0A4X3
P38056
Q8X4I9
Q8D6Q0
B6ELK6
Q8YD03
Q5HUQ3
A9KFM0
C5BCC5
B2VJ52
Q74FK2
A6SY68
Q030B4
A0QSR6
Q9CNL5
P63479
P59237
B4S1A6
A5VVI9
A9WVT5
Q9F8I0
Q9A7Q9
B0TYB0
C6E5Z6
O08445
Q607M5
P94967
P9WQA8
Q8ELR9
P63480
P29012
Q8ZFL4
Q981H7
B7GFP5
Q8FVC1
Q8KB67
A9ND48
Q2JFD6
Q7VNC9
Q28RK6
A5VI51
Q8EX97
Q1H1N8
P9WQA9
A0PME2
Q3V7N2
C6DE79
Q9HUN4
Q6GF03
O30746
Q8Z300
Q1QU82
Q83D71
Q14IP6
A7ND36
P45257
Q2SLB1
Q5FMB2
Q03T06
Q9FCV2
B2G5M9
Q92DC9
Q98A05
P0A1A4
Q6G7N9
Q8ELK1
Q9HTQ2
O67687
A5N376
Q0K9V9
Q2A2P9
Q034T9
Q1WV14
G2K4Q7
B3DWZ0
A1T566
Q03DZ2
P63481
Q9RAE7
Q9RER4
A3MKW5
A0PY95
Q0TSS9
B3R2F9
B2SHB9
A1WUS2
B3WAR0
Q38V64
A1TIS2
A8ESX7
C1CVP5
B8D0W1
Q1GBP6
C1DBE8
Q00319
Q9KWR0
G1UII1
P04964
P25051
Q06893
Q9XAK7
Q9X3P3
P40817
B3WC79
P55153
O70055
P63959
B1I9Y6
Q8GR69
A7ZA76
Q2FZW4
A5IRB2
Q5M0A6
Q5M4V3
Q2YWQ6
Q8CPW0
Q04HZ9
Q03L69
Q03V70
Q4L4U7
C3P4I5
C3LAI0
B9IUW0
Q92D49
P0DA66
B5E3R6
Q48SZ5
P63957
B9DSG7
A6QFE5
Q5XBN7
P0DA67
C1L1P3
P0A018
Q9X2N6
C1CHH5
C1CNE7
Q81T99
B7JFV3
Q3JZ96
C1CU93
Q63E04
A8YTM4
Q721J4
B8DEG4
P0A019
P63961
B5XLX3
Q6HLH9
P61399
Q9S389
P0A3A0
Q1JBD6
P39578
P55154
P61398
Q6GIF4
Q6GAZ2
Q65DG9
P0A3A1
C0MBD4
P39580
P35855
C1EM78
Q9CG51
A7X0D9
A8Z1J3
Q1JGF2
A4W0A9
C0MDC9
Q04HZ7
B7IN64
Q88VM6
Q2YWQ8
C1EM80
P35854
Q9X2N4
Q53526
B7HHC6
Q92D47
Q5HHF2
Q5HQN0
B7HK95
C1L1P5
A6QFE3
A7GMR0
Q721J2
Q3JZ94
B8DEG2
P68876
Q8CT93
B9IUW2
Q8Y8D4
P99107
Q4L4U5
Q81G39
A0AH92
A7ZA74
Q63E02
A7X0D6
Q6GIF6
Q6HLH7
A6U039
C3P4I7
Q65DH1
Q2FIE3
Q6GAZ4
C3LAH8
P39581
Q8VM67
A0RBJ0
A9VKV6
Q2FZW6
A8Z1J1
Q81T97
Q03AZ2
P0C397
P59591
B7JFV5
B3WC77
A5IRB0
Q73BD2
Q9CG49
P68878
C0MBD6
Q99ZA6
Q1J667
B7HK93
A8FFX3
B9DIY6
Q5XBN5
Q38YM9
Q5HQM8
A2RE45
Q1G852
B1MZW0
B8ZQ12
B8ZQ14
Q047K9
Q48SZ3
P0A398
P39579
Q5HHF0
C1CB20
P0DA65
Q49W73
Q8P0J9
B5XLX5
Q81G41
Q040N1
C1CB19
B2INJ3
P0A399
C1CNE9
P63958
C1CU95
B7IN62
A0AH90
Q1JLB9
Q1JLB7
A9VKV4
A6U041
Q1J669
A3CR85
Q88X40
Q830N2
Q5FHV3
P0C426
P0A020
B7HHC4
Q03AZ0
Q02YS9
Q2FIE1
P23826
Q95XG9
P39979
Q47746
P37711
Q5FRJ7
A6WYS5
Q9ZBA9
A3PRU3
Q3IX78
B9KTA6
B2SD81
Q2YLB4
Q579G4
A9MCM7
C0RM93
Q8YD27
A5VVL2
A9WVV8
Q8FV99
Q88VM8
A2RKK0
B4U3P0
Q1JGF0
A8AUB8
P0DA64
A2RE47
A4VU17

>  <Last Modified>  (24) 
27 Nov 2007

$$$$

     RDKit          2D

 16 17  0  0  1  0  0  0  0  0999 V2000
    0.0032   -0.2625    0.0000 C   0  0  0  0  0  0  0  0  0  0  0  0
   -0.0830   -1.0830    0.0000 C   0  0  0  0  0  0  0  0  0  0  0  0
   -0.8900   -1.2545    0.0000 N   0  0  0  0  0  0  0  0  0  0  0  0
   -1.3025   -0.5401    0.0000 C   0  0  0  0  0  0  0  0  0  0  0  0
   -0.7505    0.0730    0.0000 C   0  0  0  0  0  0  0  0  0  0  0  0
   -1.0054    0.8576    0.0000 C   0  0  0  0  0  0  0  0  0  0  0  0
   -2.1095   -0.3685    0.0000 C   0  0  0  0  0  0  0  0  0  0  0  0
   -2.3644    0.4161    0.0000 C   0  0  0  0  0  0  0  0  0  0  0  0
   -1.8124    1.0292    0.0000 C   0  0  0  0  0  0  0  0  0  0  0  0
    2.1466    0.9750    0.0000 O   0  0  0  0  0  0  0  0  0  0  0  0
    2.1466    0.1500    0.0000 C   0  0  0  0  0  0  0  0  0  0  0  0
    1.4321   -0.2625    0.0000 C   0  0  0  0  0  0  0  0  0  0  0  0
    0.7177    0.1500    0.0000 C   0  0  0  0  0  0  0  0  0  0  0  0
    1.4321   -1.0875    0.0000 N   0  0  0  0  0  0  0  0  0  0  0  0
    0.7176   -1.5000    0.0000 *   0  0  0  0  0  0  0  0  0  0  0  0
    2.8611   -0.2625    0.0000 *   0  0  0  0  0  0  0  0  0  0  0  0
  1  2  2  0
  1  5  1  0
  2  3  1  0
  3  4  1  0
  4  5  2  0
  4  7  1  0
  5  6  1  0
  6  9  2  0
  7  8  2  0
  8  9  1  0
 11 10  2  0
 16 11  1  0
 12 11  1  0
 12 14  1  0
 12 13  1  6
  1 13  1  0
 14 15  1  0
V   15 *
V   16 *
M  END
>  <ChEBI ID>  (25) 
CHEBI:29955

>  <ChEBI Name>  (25) 
D-tryptophan residue

>  <Star>  (25) 
3

>  <SMILES>  (25) 
C1(=CNC2=C1C=CC=C2)C[C@H](C(=O)*)N*

>  <Formulae>  (25) 
C11H10N2O

>  <Charge>  (25) 
0

>  <Mass>  (25) 
186.20998

>  <Monoisotopic Mass>  (25) 
186.07931

>  <Synonyms>  (25) 
-D-Trp-
D-Trp
D-tryptophan
D-tryptophan residue
D-tryptophyl
DTrp

>  <RESID Database Links>  (25) 
AA0198

>  <PubChem Database Links>  (25) 
SID: 8146400

>  <SABIO-RK Database Links>  (25) 
14873
8594
7181
9813
12892
1060
703
11667

>  <UniProt Database Links>  (25) 
P85078
Q3V3I2
P14902
P28776
Q9ERD9
Q8R0V5
P47125
P58784
Q9NDA7
Q9NDA5
P0C248
P0CY84
P0C250
Q2I2P3
P62903
P58786
P58787
P0C837
P83047
G1UII1
Q8PDA8
Q4WYG3

>  <Last Modified>  (25) 
21 Jun 2018

$$$$
ChEBI
     RDKit          2D

 10  9  0  0  1  0  0  0  0  0999 V2000
    8.7710  -17.5268    0.0000 C   0  0  0  0  0  0  0  0  0  0  0  0
    8.7710  -16.7018    0.0000 O   0  0  0  0  0  0  0  0  0  0  0  0
    8.0565  -17.9393    0.0000 C   0  0  0  0  0  0  0  0  0  0  0  0
    8.0565  -18.7643    0.0000 N   0  0  0  0  0  0  0  0  0  0  0  0
    7.3421  -17.5268    0.0000 C   0  0  0  0  0  0  0  0  0  0  0  0
    6.6276  -17.9393    0.0000 C   0  0  0  0  0  0  0  0  0  0  0  0
    5.9131  -17.5268    0.0000 O   0  0  0  0  0  0  0  0  0  0  0  0
    6.6276  -18.7643    0.0000 O   0  0  0  0  0  0  0  0  0  0  0  0
    7.3421  -19.1768    0.0000 *   0  0  0  0  0  0  0  0  0  0  0  0
    9.4855  -17.9392    0.0000 *   0  0  0  0  0  0  0  0  0  0  0  0
  1 10  1  0
  2  1  2  0
  3  1  1  0
  3  4  1  0
  3  5  1  1
  6  5  1  0
  7  6  1  0
  8  6  2  0
  9  4  1  0
M  CHG  1   7  -1
V    9 *
V   10 *
M  END
>  <ChEBI ID>  (26) 
CHEBI:29961

>  <ChEBI Name>  (26) 
L-aspartate residue

>  <Star>  (26) 
3

>  <SMILES>  (26) 
C(*)(=O)[C@@H](N*)CC([O-])=O

>  <Formulae>  (26) 
C4H4NO3

>  <Charge>  (26) 
-1

>  <Mass>  (26) 
114.07950

>  <Monoisotopic Mass>  (26) 
114.01912

>  <Synonyms>  (26) 
Asp(-)
L-aspartate residue

>  <PubChem Database Links>  (26) 
SID: 8146395

>  <Rhea Database Links>  (26) 
RHEA:54276
RHEA:59524
RHEA:37087
RHEA:54428
RHEA:57416
RHEA:11508
RHEA:54280
RHEA:37083
RHEA:36351
RHEA:54424

>  <Last Modified>  (26) 
06 Nov 2019

$$$$
ChEBI
     RDKit          2D

 11 10  0  0  1  0  0  0  0  0999 V2000
   14.5288   -8.2622    0.0000 C   0  0  0  0  0  0  0  0  0  0  0  0
   14.5288   -7.4372    0.0000 O   0  0  0  0  0  0  0  0  0  0  0  0
   13.8143   -8.6747    0.0000 C   0  0  0  0  0  0  0  0  0  0  0  0
   13.8143   -9.4997    0.0000 N   0  0  0  0  0  0  0  0  0  0  0  0
   13.0999   -8.2622    0.0000 C   0  0  0  0  0  0  0  0  0  0  0  0
   11.6709   -8.2621    0.0000 C   0  0  0  0  0  0  0  0  0  0  0  0
   11.6709   -7.4371    0.0000 O   0  0  0  0  0  0  0  0  0  0  0  0
   10.9564   -8.6746    0.0000 O   0  0  0  0  0  0  0  0  0  0  0  0
   12.3854   -8.6747    0.0000 C   0  0  0  0  0  0  0  0  0  0  0  0
   15.2433   -8.6747    0.0000 *   0  0  0  0  0  0  0  0  0  0  0  0
   13.0999   -9.9122    0.0000 *   0  0  0  0  0  0  0  0  0  0  0  0
  1 10  1  0
  2  1  2  0
  3  1  1  0
  3  4  1  0
  3  5  1  1
  7  6  2  0
  8  6  1  0
  9  6  1  0
  5  9  1  0
 11  4  1  0
M  CHG  1   8  -1
V   10 *
V   11 *
M  END
>  <ChEBI ID>  (27) 
CHEBI:29973

>  <ChEBI Name>  (27) 
L-glutamate residue

>  <Star>  (27) 
3

>  <SMILES>  (27) 
C(*)(=O)[C@@H](N*)CCC(=O)[O-]

>  <Formulae>  (27) 
C5H6NO3

>  <Charge>  (27) 
-1

>  <Mass>  (27) 
128.10608

>  <Monoisotopic Mass>  (27) 
128.03477

>  <Synonyms>  (27) 
Glu(-)
L-glutamate residue

>  <PubChem Database Links>  (27) 
SID: 8146383

>  <Rhea Database Links>  (27) 
RHEA:58248
RHEA:60152
RHEA:24452
RHEA:23236
RHEA:67180
RHEA:60144
RHEA:45140
RHEA:58224
RHEA:16441

>  <Last Modified>  (27) 
19 Aug 2014

$$$$

     RDKit          2D

 10  9  0  0  1  0  0  0  0  0999 V2000
    1.1908    1.0542    0.0000 O   0  0  0  0  0  0  0  0  0  0  0  0
    1.1908    0.2292    0.0000 C   0  0  0  0  0  0  0  0  0  0  0  0
    1.9053   -0.1833    0.0000 *   0  0  0  0  0  0  0  0  0  0  0  0
    0.4763   -0.1833    0.0000 C   0  0  0  0  0  0  0  0  0  0  0  0
   -0.2382    0.2292    0.0000 C   0  0  0  0  0  0  0  0  0  0  0  0
   -0.9526   -0.1833    0.0000 C   0  0  0  0  0  0  0  0  0  0  0  0
   -1.6671    0.2292    0.0000 S   0  0  0  0  0  0  0  0  0  0  0  0
   -2.3816   -0.1833    0.0000 C   0  0  0  0  0  0  0  0  0  0  0  0
    0.4763   -1.0083    0.0000 N   0  0  0  0  0  0  0  0  0  0  0  0
   -0.2382   -1.4208    0.0000 *   0  0  0  0  0  0  0  0  0  0  0  0
  2  1  2  0
  3  2  1  0
  4  2  1  0
  4  9  1  0
  4  5  1  6
  6  5  1  0
  7  6  1  0
  8  7  1  0
  9 10  1  0
V    3 *
V   10 *
M  END
>  <ChEBI ID>  (28) 
CHEBI:29984

>  <ChEBI Name>  (28) 
D-methionine residue

>  <Star>  (28) 
3

>  <SMILES>  (28) 
O=C(*)[C@H](N*)CCSC

>  <Formulae>  (28) 
C5H9NOS

>  <Charge>  (28) 
0

>  <Mass>  (28) 
131.19710

>  <Monoisotopic Mass>  (28) 
131.04048

>  <Synonyms>  (28) 
-D-Met-
D-Met
D-methionine residue
D-methionyl
DMet

>  <RESID Database Links>  (28) 
AA0193

>  <Patent Database Links>  (28) 
GB1524318
GB1524319
US2004152629
US2007203217
WO2005021494

>  <PubChem Database Links>  (28) 
SID: 8146372

>  <UniProt Database Links>  (28) 
Q95XG9

>  <Last Modified>  (28) 
21 Jun 2018

$$$$
ChEBI
     RDKit          2D

 13 13  0  0  1  0  0  0  0  0999 V2000
   11.4752   -5.4093    0.0000 C   0  0  0  0  0  0  0  0  0  0  0  0
   11.4752   -4.5843    0.0000 O   0  0  0  0  0  0  0  0  0  0  0  0
   10.7608   -5.8218    0.0000 C   0  0  0  0  0  0  0  0  0  0  0  0
   10.7608   -6.6468    0.0000 N   0  0  0  0  0  0  0  0  0  0  0  0
   10.0463   -5.4094    0.0000 C   0  0  0  0  0  0  0  0  0  0  0  0
    9.3319   -5.8219    0.0000 C   0  0  0  0  0  0  0  0  0  0  0  0
    9.3319   -6.6469    0.0000 C   0  0  0  0  0  0  0  0  0  0  0  0
    8.6174   -5.4094    0.0000 C   0  0  0  0  0  0  0  0  0  0  0  0
    7.9029   -5.8219    0.0000 C   0  0  0  0  0  0  0  0  0  0  0  0
    8.6174   -7.0594    0.0000 C   0  0  0  0  0  0  0  0  0  0  0  0
    7.9030   -6.6469    0.0000 C   0  0  0  0  0  0  0  0  0  0  0  0
   12.1897   -5.8218    0.0000 *   0  0  0  0  0  0  0  0  0  0  0  0
   10.0464   -7.0594    0.0000 *   0  0  0  0  0  0  0  0  0  0  0  0
  1 12  1  0
  2  1  2  0
  3  1  1  0
  3  4  1  0
  3  5  1  6
  6  5  1  0
  7  6  2  0
  8  6  1  0
  9  8  2  0
 10  7  1  0
 11  9  1  0
 10 11  2  0
 13  4  1  0
V   12 *
V   13 *
M  END
>  <ChEBI ID>  (29) 
CHEBI:29996

>  <ChEBI Name>  (29) 
D-phenylalanine residue

>  <Star>  (29) 
3

>  <SMILES>  (29) 
C(*)(=O)[C@H](N*)CC1=CC=CC=C1

>  <Formulae>  (29) 
C9H9NO

>  <Charge>  (29) 
0

>  <Mass>  (29) 
147.17390

>  <Monoisotopic Mass>  (29) 
147.06841

>  <Synonyms>  (29) 
-D-Phe-
D-Phe
D-phenylalanine
D-phenylalanine residue
D-phenylalanyl
DPhe

>  <RESID Database Links>  (29) 
AA0194

>  <PubChem Database Links>  (29) 
SID: 8146364

>  <SABIO-RK Database Links>  (29) 
13560
12435
12407
12408
12427
12425
12456
9796
1076
9616
12890
703
6498

>  <UniProt Database Links>  (29) 
P00918
P22748
P35218
P43166
Q9ULX7
P00915
P35904
P83485
P19806
P83486
Q25154
P83800
P55845
Q25683
P0C061
P0C062
P9WG37
Q3V3I2
Q63016
P0CH39
B2KPN7
O68008
Q9KWR0
G1UII1
Q7Z093
P0C610
Q7Z095
P0C611
Q7Z094
Q7Z092
P0C260
P58648
Q95XG9
P14920
Q8GED9
P09095
O30408

>  <Last Modified>  (29) 
21 Jun 2018

$$$$

     RDKit          2D

  8  7  0  0  1  0  0  0  0  0999 V2000
    0.6124    0.2357    0.0000 C   0  0  0  0  0  0  0  0  0  0  0  0
   -0.1021   -0.1768    0.0000 C   0  0  0  0  0  0  0  0  0  0  0  0
   -0.8165    0.2357    0.0000 C   0  0  0  0  0  0  0  0  0  0  0  0
    0.6124    1.0607    0.0000 O   0  0  0  0  0  0  0  0  0  0  0  0
   -1.5310   -0.1768    0.0000 O   0  0  0  0  0  0  0  0  0  0  0  0
   -0.1021   -1.0018    0.0000 N   0  0  0  0  0  0  0  0  0  0  0  0
   -0.8165   -1.4143    0.0000 *   0  0  0  0  0  0  0  0  0  0  0  0
    1.3269   -0.1768    0.0000 *   0  0  0  0  0  0  0  0  0  0  0  0
  2  1  1  0
  4  1  2  0
  8  1  1  0
  2  3  1  6
  2  6  1  0
  5  3  1  0
  6  7  1  0
V    7 *
V    8 *
M  END
>  <ChEBI ID>  (30) 
CHEBI:29998

>  <ChEBI Name>  (30) 
D-serine residue

>  <Star>  (30) 
3

>  <SMILES>  (30) 
C([C@@H](CO)N*)(=O)*

>  <Formulae>  (30) 
C3H5NO2

>  <Charge>  (30) 
0

>  <Mass>  (30) 
87.07734

>  <Monoisotopic Mass>  (30) 
87.03203

>  <Synonyms>  (30) 
-D-Ser-
D-Ser
D-serine
D-serine residue
D-seryl
DSer

>  <RESID Database Links>  (30) 
AA0195

>  <PubChem Database Links>  (30) 
SID: 8146362

>  <Rhea Database Links>  (30) 
RHEA:10660

>  <SABIO-RK Database Links>  (30) 
15182
15542
988
9777
16057
746
15657
7269
7274
2717
4065
11807
921
15181
7751

>  <UniProt Database Links>  (30) 
P85363
P0A790
O27106
Q5ZIL2
Q7ZV68
Q54IF7
Q9UBQ0
Q9QZ88
Q5R9Z1
B2RZ78
Q6GP62
Q6DEU3
P39831
P0C7I4
Q8ZL08
Q3T0M0
A1ADP3
Q75TC9
Q75TH5
A5W4Y8
B0KGK3
B5BII6
B4TMW9
Q8Z2L4
A7MYG2
Q9KL72
C3LWD9
C1EPF1
B7HID8
Q3AFZ5
Q7NUP9
Q2SHX7
Q0I5V1
Q0TF95
Q1R901
Q8FFF4
B0UWV3
B2GBP8
B3PYT5
B5ZNC1
A8GES6
Q0T953
Q87QA2
B7HMG6
Q81F73
Q63D23
A8ACI7
Q88TY1
Q1R2Q6
A1TPW5
Q6FDC1
B7I8P7
Q6HKG3
Q9KC12
Q04G28
B1IX96
Q03DF6
Q31YA5
B2HVC6
A1JJW5
A3M3B1
B9MIR7
P54555
Q5WGL6
Q47V69
Q46X58
Q7N5H9
Q6LHF5
A3P975
Q32DH8
A9VPH9
A1VWK8
P00926
A6V271
A1W838
Q0T2D1
A0KI76
B7V2Y0
Q02QJ1
A9MKH2
B5EY75
Q3JJ76
B7N5W6
B6I6R7
A4SPX2
Q83MK8
C3L7G5
Q63IF8
A3NNQ0
Q24WR0
Q57I32
A7ZPH2
B7LK20
Q9HYN9
A0RCF8
B5FMC1
Q81S85
B7MH26
Q396Y3
B5QU31
B5RG23
Q8XCK5
B7LBR9
A4XXF3
B4TA53
Q73AC5
Q3YZG4
B5YYW7
Q2T8Q2
Q5PKR3
B4SY68
B7M6N5
B7MY25
C4ZVQ3
B1X9N9
Q4A041
A6UB95
A8A2M0
B7IR88
Q8RFX6
C0Q241
A9MWI4
A5F0M6
Q8U8I2
Q9KWN1
Q8L7R2
P0AAE1
Q9NS82
P63115
P63116
O82872
Q9US35
P53095
P46068
P08555
P37045
O28142
O82796
Q2KHU0
P0AGB1
B0R7U7
Q9VSY6
P0AGB0
P44997
P78330
A0QJI1
Q5RB83
O74382
P0AGB2
Q58989
Q99LS3
Q5M819
P42941
O07014
P40399
B2DFG5
Q96GD0
P60487
Q8VD52
Q3ZBF9
G1UII1
Q9X3P3
P58649
O35078
Q95XG9
Q9Z1M5
Q9Z302
P14920
A2V9Y8
P18894
P00371
P22942
A0JNI4
Q54HH2
Q9GZT4
Q9QZX7
A2XWA9
Q7XSN8
Q76EQ0
O59791
Q2PGG3
Q5FRJ7
A6WYS5
Q9ZBA9
A3PRU3
Q3IX78
B9KTA6
B2SD81
Q2YLB4
Q579G4
A9MCM7
C0RM93
Q8YD27
A5VVL2
A9WVV8
Q8FV99
P0AAE0
P17906
D3DFP8
D3DFG8
P39979

>  <Last Modified>  (30) 
27 Sep 2016

$$$$

     RDKit          2D

 10  9  0  0  1  0  0  0  0  0999 V2000
    0.9206    0.4818    0.0000 C   0  0  0  0  0  0  0  0  0  0  0  0
    1.6351    0.0693    0.0000 *   0  0  0  0  0  0  0  0  0  0  0  0
    0.2061    0.0693    0.0000 C   0  0  0  0  0  0  0  0  0  0  0  0
   -0.5083    0.4818    0.0000 C   0  0  0  0  0  0  0  0  0  0  0  0
   -1.2228    0.0693    0.0000 C   0  0  0  0  0  0  0  0  0  0  0  0
   -1.2228   -0.7557    0.0000 C   0  0  0  0  0  0  0  0  0  0  0  0
   -1.9373    0.4818    0.0000 C   0  0  0  0  0  0  0  0  0  0  0  0
    0.9206   -1.1682    0.0000 *   0  0  0  0  0  0  0  0  0  0  0  0
    0.2061   -0.7557    0.0000 N   0  0  0  0  0  0  0  0  0  0  0  0
    0.9206    1.3068    0.0000 O   0  0  0  0  0  0  0  0  0  0  0  0
  1 10  2  0
  2  1  1  0
  3  1  1  0
  3  9  1  0
  3  4  1  6
  5  4  1  0
  6  5  1  0
  7  5  1  0
  8  9  1  0
V    2 *
V    8 *
M  END
>  <ChEBI ID>  (31) 
CHEBI:30005

>  <ChEBI Name>  (31) 
D-leucine residue

>  <Star>  (31) 
3

>  <SMILES>  (31) 
C(=O)(*)[C@H](N*)CC(C)C

>  <Formulae>  (31) 
C6H11NO

>  <Charge>  (31) 
0

>  <Mass>  (31) 
113.15768

>  <Monoisotopic Mass>  (31) 
113.08406

>  <Synonyms>  (31) 
-D-Leu-
D-Leu
D-leucine
D-leucine residue
D-leucyl
DLeu

>  <RESID Database Links>  (31) 
AA0197

>  <PubChem Database Links>  (31) 
SID: 8146355

>  <SABIO-RK Database Links>  (31) 
9718
13559
9761
14017

>  <UniProt Database Links>  (31) 
P84715
Q63016
Q70LM6
Q70LM5
Q70LM4
P58785
Q9NDA6
P0C249
Q9KWR0
G1UII1
Q7Z096
Q7Z097
Q7Z0A5
Q7Z0A4
Q7Z0A3
P0C256
P0C607
Q8GED9

>  <Last Modified>  (31) 
04 Jun 2019

$$$$

     RDKit          2D

 10  9  0  0  1  0  0  0  0  0999 V2000
    1.0167    0.8107    0.0000 O   0  0  0  0  0  0  0  0  0  0  0  0
    1.0167   -0.0143    0.0000 C   0  0  0  0  0  0  0  0  0  0  0  0
    0.3023   -0.4268    0.0000 C   0  0  0  0  0  0  0  0  0  0  0  0
   -0.4122   -0.0143    0.0000 C   0  0  0  0  0  0  0  0  0  0  0  0
   -0.4122    0.8107    0.0000 C   0  0  0  0  0  0  0  0  0  0  0  0
   -1.1267   -0.4268    0.0000 C   0  0  0  0  0  0  0  0  0  0  0  0
   -1.8411   -0.0143    0.0000 C   0  0  0  0  0  0  0  0  0  0  0  0
    0.3023   -1.2518    0.0000 N   0  0  0  0  0  0  0  0  0  0  0  0
   -0.4122   -1.6643    0.0000 *   0  0  0  0  0  0  0  0  0  0  0  0
    1.7312   -0.4268    0.0000 *   0  0  0  0  0  0  0  0  0  0  0  0
  2  1  2  0
 10  2  1  0
  3  2  1  0
  3  8  1  6
  4  3  1  0
  4  5  1  6
  6  4  1  0
  7  6  1  0
  8  9  1  0
V    9 *
V   10 *
M  END
>  <ChEBI ID>  (32) 
CHEBI:30007

>  <ChEBI Name>  (32) 
D-alloisoleucine residue

>  <Star>  (32) 
3

>  <SMILES>  (32) 
O=C(*)[C@H](N*)[C@@H](C)CC

>  <Formulae>  (32) 
C6H11NO

>  <Charge>  (32) 
0

>  <Mass>  (32) 
113.15768

>  <Monoisotopic Mass>  (32) 
113.08406

>  <Synonyms>  (32) 
D-allo-isoleucine
D-alloisoleucine residue
D-alloisoleucyl

>  <RESID Database Links>  (32) 
AA0192

>  <Patent Database Links>  (32) 
US2003219879

>  <PubChem Database Links>  (32) 
SID: 14718447

>  <UniProt Database Links>  (32) 
P82282
P82284
P82285
P29006
O93456
P85015

>  <Last Modified>  (32) 
21 Jun 2018

$$$$

     RDKit          2D

 10  9  0  0  1  0  0  0  0  0999 V2000
    1.0167    0.8107    0.0000 O   0  0  0  0  0  0  0  0  0  0  0  0
    1.0167   -0.0143    0.0000 C   0  0  0  0  0  0  0  0  0  0  0  0
    0.3023   -0.4268    0.0000 C   0  0  0  0  0  0  0  0  0  0  0  0
   -0.4122   -0.0143    0.0000 C   0  0  0  0  0  0  0  0  0  0  0  0
   -0.4122    0.8107    0.0000 C   0  0  0  0  0  0  0  0  0  0  0  0
   -1.1267   -0.4268    0.0000 C   0  0  0  0  0  0  0  0  0  0  0  0
   -1.8411   -0.0143    0.0000 C   0  0  0  0  0  0  0  0  0  0  0  0
    0.3023   -1.2518    0.0000 N   0  0  0  0  0  0  0  0  0  0  0  0
   -0.4122   -1.6643    0.0000 *   0  0  0  0  0  0  0  0  0  0  0  0
    1.7312   -0.4268    0.0000 *   0  0  0  0  0  0  0  0  0  0  0  0
  2  1  2  0
 10  2  1  0
  3  2  1  0
  3  8  1  1
  4  3  1  0
  4  5  1  1
  6  4  1  0
  7  6  1  0
  8  9  1  0
V    9 *
V   10 *
M  END
>  <ChEBI ID>  (33) 
CHEBI:30008

>  <ChEBI Name>  (33) 
L-alloisoleucine residue

>  <Star>  (33) 
3

>  <SMILES>  (33) 
O=C(*)[C@@H](N*)[C@H](C)CC

>  <Formulae>  (33) 
C6H11NO

>  <Charge>  (33) 
0

>  <Mass>  (33) 
113.15768

>  <Monoisotopic Mass>  (33) 
113.08406

>  <Synonyms>  (33) 
L-alloisoleucine residue
L-alloisoleucyl

>  <PubChem Database Links>  (33) 
SID: 14718446

>  <Last Modified>  (33) 
04 Jun 2019

$$$$

     RDKit          2D

  9  8  0  0  1  0  0  0  0  0999 V2000
    0.7145    0.9281    0.0000 O   0  0  0  0  0  0  0  0  0  0  0  0
    0.7145    0.1031    0.0000 C   0  0  0  0  0  0  0  0  0  0  0  0
    0.0000   -0.3094    0.0000 C   0  0  0  0  0  0  0  0  0  0  0  0
   -0.7145    0.1031    0.0000 C   0  0  0  0  0  0  0  0  0  0  0  0
   -0.7145    0.9281    0.0000 O   0  0  0  0  0  0  0  0  0  0  0  0
   -1.4289   -0.3094    0.0000 C   0  0  0  0  0  0  0  0  0  0  0  0
    0.0000   -1.1344    0.0000 N   0  0  0  0  0  0  0  0  0  0  0  0
   -0.7145   -1.5469    0.0000 *   0  0  0  0  0  0  0  0  0  0  0  0
    1.4290   -0.3094    0.0000 *   0  0  0  0  0  0  0  0  0  0  0  0
  2  1  2  0
  9  2  1  0
  3  2  1  0
  3  7  1  6
  4  3  1  0
  4  5  1  0
  4  6  1  6
  7  8  1  0
V    8 *
V    9 *
M  END
>  <ChEBI ID>  (34) 
CHEBI:30014

>  <ChEBI Name>  (34) 
D-threonine residue

>  <Star>  (34) 
3

>  <SMILES>  (34) 
O=C(*)[C@H](N*)[C@@H](O)C

>  <Formulae>  (34) 
C4H7NO2

>  <Charge>  (34) 
0

>  <Mass>  (34) 
101.10392

>  <Monoisotopic Mass>  (34) 
101.04768

>  <Synonyms>  (34) 
-D-Thr-
D-Thr
D-threonine residue
D-threonyl
DThr

>  <Patent Database Links>  (34) 
WO2007127457
EP1878437
US2007185033
US2007238654
WO2005021494

>  <PubChem Database Links>  (34) 
SID: 8146348

>  <UniProt Database Links>  (34) 
Q7Z091
Q5FRJ7
A6WYS5
Q9ZBA9
A3PRU3
Q3IX78
B9KTA6
B2SD81
Q2YLB4
Q579G4
A9MCM7
C0RM93
Q8YD27
A5VVL2
A9WVV8
Q8FV99

>  <Last Modified>  (34) 
21 Jun 2018

$$$$
ChEBI
     RDKit          2D

  6  5  0  0  0  0  0  0  0  0999 V2000
    6.8541  -16.6672    0.0000 C   0  0  0  0  0  0  0  0  0  0  0  0
    6.8541  -15.8422    0.0000 O   0  0  0  0  0  0  0  0  0  0  0  0
    6.1396  -17.0797    0.0000 C   0  0  0  0  0  3  0  0  0  0  0  0
    6.1396  -17.9047    0.0000 N   0  0  0  0  0  0  0  0  0  0  0  0
    7.5685  -17.0798    0.0000 *   0  0  0  0  0  0  0  0  0  0  0  0
    5.4251  -18.3173    0.0000 *   0  0  0  0  0  0  0  0  0  0  0  0
  1  5  1  0
  2  1  2  0
  3  1  1  0
  3  4  1  0
  6  4  1  0
M  RAD  1   3   2
V    5 *
V    6 *
M  END
>  <ChEBI ID>  (35) 
CHEBI:32722

>  <ChEBI Name>  (35) 
glycyl radical residue

>  <Star>  (35) 
3

>  <SMILES>  (35) 
C(*)(=O)[C](N*)[H]

>  <Formulae>  (35) 
C2H2NO

>  <Charge>  (35) 
0

>  <Mass>  (35) 
56.04342

>  <Monoisotopic Mass>  (35) 
56.01364

>  <Synonyms>  (35) 
-Gly(.)-
Gly radical
Gly(.)
glycin-2-yl radical residue
glycine radical residue

>  <PubChem Database Links>  (35) 
SID: 8147515

>  <Rhea Database Links>  (35) 
RHEA:19225
RHEA:61976

>  <Last Modified>  (35) 
29 Nov 2017

$$$$

     RDKit          2D

 13 13  0  0  0  0  0  0  0  0999 V2000
    0.0000    0.8250    0.0000 C   0  0  0  0  0  0  0  0  0  0  0  0
    0.7145    0.4125    0.0000 C   0  0  0  0  0  0  0  0  0  0  0  0
   -0.7145    0.4125    0.0000 C   0  0  0  0  0  0  0  0  0  0  0  0
   -0.7145   -0.4125    0.0000 C   0  0  0  0  0  0  0  0  0  0  0  0
   -1.9840    0.0000    0.0000 C   0  0  0  0  0  0  0  0  0  0  0  0
   -1.4991   -0.6674    0.0000 N   0  0  0  0  0  0  0  0  0  0  0  0
   -1.4991    0.6674    0.0000 N   0  0  0  0  0  0  0  0  0  0  0  0
    1.4290    0.8250    0.0000 C   0  0  0  0  0  0  0  0  0  0  0  0
    1.4290    1.6500    0.0000 O   0  0  0  0  0  0  0  0  0  0  0  0
   -1.7540    1.4521    0.0000 C   0  0  0  0  0  0  0  0  0  0  0  0
    0.7145   -0.4125    0.0000 N   0  0  0  0  0  0  0  0  0  0  0  0
    0.0000   -0.8250    0.0000 *   0  0  0  0  0  0  0  0  0  0  0  0
    2.1435    0.4125    0.0000 *   0  0  0  0  0  0  0  0  0  0  0  0
  2  1  1  1
  2  8  1  0
  3  1  1  0
  7  3  1  0
  4  3  2  0
  6  4  1  0
  2 11  1  0
  5  6  2  0
  5  7  1  0
  7 10  1  0
  8 13  1  0
  9  8  2  0
 11 12  1  0
V   12 *
V   13 *
M  END
>  <ChEBI ID>  (36) 
CHEBI:43903

>  <ChEBI Name>  (36) 
N(pros)-methyl-L-histidine residue

>  <Star>  (36) 
3

>  <SMILES>  (36) 
C([C@@H](C(*)=O)N*)C=1N(C=NC1)C

>  <Formulae>  (36) 
C7H9N3O

>  <Charge>  (36) 
0

>  <Mass>  (36) 
151.16598

>  <Monoisotopic Mass>  (36) 
151.07456

>  <Synonyms>  (36) 
3'-methyl-L-histidine
N(pros)-methyl-L-histidine residue
N1-METHYLATED HISTIDINE

>  <PDBeChem Database Links>  (36) 
MHS

>  <RESID Database Links>  (36) 
AA0073

>  <PubChem Database Links>  (36) 
SID: 53801239

>  <Rhea Database Links>  (36) 
RHEA:67076

>  <Last Modified>  (36) 
06 Jul 2015

$$$$

     RDKit          2D

 12 11  0  0  1  0  0  0  0  0999 V2000
   13.3264  -11.7170    0.0000 C   0  0  0  0  0  0  0  0  0  0  0  0
   12.6120  -11.3045    0.0000 C   0  0  0  0  0  0  0  0  0  0  0  0
   15.4698  -11.3045    0.0000 C   0  0  0  0  0  0  0  0  0  0  0  0
   14.7554  -11.7170    0.0000 C   0  0  0  0  0  0  0  0  0  0  0  0
   14.0409  -11.3045    0.0000 C   0  0  0  0  0  0  0  0  0  0  0  0
   15.4698  -10.4795    0.0000 O   0  0  0  0  0  0  0  0  0  0  0  0
   12.6120  -10.4795    0.0000 O   0  0  0  0  0  0  0  0  0  0  0  0
   11.8975  -11.7170    0.0000 N   0  0  0  0  0  0  0  0  0  0  0  0
   14.7554  -12.5420    0.0000 N   0  0  0  0  0  0  0  0  0  0  0  0
   16.1842  -11.7170    0.0000 *   0  0  0  0  0  0  0  0  0  0  0  0
   11.1830  -11.3045    0.0000 C   0  0  0  0  0  0  0  0  0  0  0  0
   14.0409  -12.9545    0.0000 *   0  0  0  0  0  0  0  0  0  0  0  0
  2  1  1  0
  2  7  2  0
  2  8  1  0
  3  6  2  0
 10  3  1  0
  3  4  1  0
  4  9  1  0
  5  1  1  0
  4  5  1  1
 11  8  1  0
  9 12  1  0
V   10 *
V   12 *
M  END
>  <ChEBI ID>  (37) 
CHEBI:61891

>  <ChEBI Name>  (37) 
N(5)-methyl-L-glutamine residue

>  <Star>  (37) 
3

>  <Definition>  (37) 
An alpha-amino-acid residue formed from N(5)-methyl-L-glutamine.

>  <SMILES>  (37) 
C(C(=O)NC)C[C@@H](C(=O)*)N*

>  <Formulae>  (37) 
C6H10N2O2

>  <Charge>  (37) 
0

>  <Mass>  (37) 
142.15580

>  <Monoisotopic Mass>  (37) 
142.07423

>  <Synonyms>  (37) 
N(5)-methyl-L-glutamine residue
N(5)-methyl-L-glutaminyl

>  <PubChem Database Links>  (37) 
SID: 121270187

>  <Rhea Database Links>  (37) 
RHEA:57452
RHEA:43228
RHEA:42896
RHEA:45020
RHEA:50904

>  <Last Modified>  (37) 
27 Jul 2015

$$$$

     RDKit          2D

 39 40  0  0  1  0  0  0  0  0999 V2000
   12.5098  -18.2479    0.0000 O   0  0  0  0  0  0  0  0  0  0  0  0
   14.7009  -17.5360    0.0000 O   0  0  0  0  0  0  0  0  0  0  0  0
   13.8108  -18.5244    0.0000 C   0  0  0  0  0  0  0  0  0  0  0  0
   14.2219  -19.7892    0.0000 C   0  0  0  0  0  0  0  0  0  0  0  0
   23.3481  -23.1186    0.0000 O   0  0  0  0  0  0  0  0  0  0  0  0
   23.3481  -25.4222    0.0000 O   0  0  0  0  0  0  0  0  0  0  0  0
   22.6831  -24.2705    0.0000 C   0  0  0  0  0  0  0  0  0  0  0  0
   21.3531  -24.2705    0.0000 C   0  0  0  0  0  0  0  0  0  0  0  0
   13.3319  -20.7776    0.0000 C   0  0  0  0  0  0  0  0  0  0  0  0
   20.6881  -23.1186    0.0000 C   0  0  0  0  0  0  0  0  0  0  0  0
   17.3114  -22.4536    0.0000 C   0  0  0  0  0  0  0  0  0  0  0  0
   16.1597  -21.7886    0.0000 C   0  0  0  0  0  0  0  0  0  0  0  0
   13.7430  -22.0425    0.0000 C   0  0  0  0  0  0  0  0  0  0  0  0
   12.9611  -23.1186    0.0000 C   0  0  0  0  0  0  0  0  0  0  0  0
   13.7430  -24.1945    0.0000 C   0  0  0  0  0  0  0  0  0  0  0  0
   13.3319  -25.4594    0.0000 C   0  0  0  0  0  0  0  0  0  0  0  0
   18.5764  -22.0425    0.0000 C   0  0  0  0  0  0  0  0  0  0  0  0
   19.3581  -23.1186    0.0000 C   0  0  0  0  0  0  0  0  0  0  0  0
   17.3114  -23.7836    0.0000 N   0  0  0  0  0  0  0  0  0  0  0  0
   18.5764  -24.1945    0.0000 C   0  0  0  0  0  0  0  0  0  0  0  0
   15.0078  -22.4536    0.0000 C   0  0  0  0  0  0  0  0  0  0  0  0
   15.0078  -23.7836    0.0000 N   0  0  0  0  0  0  0  0  0  0  0  0
   11.6311  -23.1186    0.0000 C   0  0  0  0  0  0  0  0  0  0  0  0
    9.6361  -21.9667    0.0000 O   0  0  0  0  0  0  0  0  0  0  0  0
   10.9661  -21.9667    0.0000 C   0  0  0  0  0  0  0  0  0  0  0  0
   11.6311  -20.8149    0.0000 O   0  0  0  0  0  0  0  0  0  0  0  0
   18.9873  -20.7776    0.0000 C   0  0  0  0  0  0  0  0  0  0  0  0
   20.6993  -19.2363    0.0000 O   0  0  0  0  0  0  0  0  0  0  0  0
   20.2883  -20.5012    0.0000 C   0  0  0  0  0  0  0  0  0  0  0  0
   21.1782  -21.4895    0.0000 O   0  0  0  0  0  0  0  0  0  0  0  0
   14.2217  -26.4479    0.0000 S   0  0  0  0  0  0  0  0  0  0  0  0
   15.5227  -26.1714    0.0000 C   0  0  0  0  0  0  0  0  0  0  0  0
   16.4125  -27.1599    0.0000 C   0  0  0  0  0  0  0  0  0  0  0  0
   16.0015  -28.4248    0.0000 N   0  0  0  0  0  0  0  0  0  0  0  0
   17.7135  -26.8835    0.0000 C   0  0  0  0  0  0  0  0  0  0  0  0
   18.6034  -27.8719    0.0000 N   0  0  0  0  0  0  0  0  0  0  0  0
   18.1246  -25.6186    0.0000 O   0  0  0  0  0  0  0  0  0  0  0  0
   20.0233  -27.4914    0.0000 *   0  0  0  0  0  0  0  0  0  0  0  0
   14.5816  -28.8053    0.0000 *   0  0  0  0  0  0  0  0  0  0  0  0
  3  1  1  0
  3  2  2  0
  4  3  1  0
  9  4  1  0
  7  5  2  0
  7  6  1  0
  8  7  1  0
 10  8  1  0
 14 23  1  0
 13  9  1  0
 17 27  1  0
 18 10  1  0
 11 12  1  0
 11 17  2  0
 11 19  1  0
 21 13  2  0
 21 22  1  0
 15 22  1  0
 15 14  2  0
 13 14  1  0
 16 15  1  0
 20 19  1  0
 20 18  2  0
 17 18  1  0
 12 21  1  0
 23 25  1  0
 25 24  1  0
 25 26  2  0
 27 29  1  0
 29 28  2  0
 29 30  1  0
 16 31  1  0
 31 32  1  0
 33 32  1  1
 33 34  1  0
 33 35  1  0
 35 36  1  0
 35 37  2  0
 36 38  1  0
 34 39  1  0
M  CHG  4   1  -1   6  -1  24  -1  30  -1
V   38 *
V   39 *
M  END
>  <ChEBI ID>  (38) 
CHEBI:61892

>  <ChEBI Name>  (38) 
dipyrrolylmethanemethyl-L-cysteine residue(4-)

>  <Star>  (38) 
3

>  <Definition>  (38) 
A tetracarboxylic acid anion that results from the removal of a proton from all four carboxylic acid groups of dipyrrolylmethanemethyl-L-cysteine residue. Major species at pH 7.3.

>  <SMILES>  (38) 
[O-]C(=O)CCC1=C(NC(=C1CC([O-])=O)CSC[C@H](N*)C(N*)=O)CC2=C(CC(=O)[O-])C(CCC(=O)[O-])=CN2

>  <Formulae>  (38) 
C23H24N4O9S

>  <Charge>  (38) 
-4

>  <Mass>  (38) 
532.52300

>  <Monoisotopic Mass>  (38) 
532.12640

>  <Synonyms>  (38) 
dipyrrole cofactor(4-)
dipyrrolylmethanemethyl-L-cysteine residue
dipyrrolylmethyl-L-cysteine residue(4-)
dipyrrolylmethyl-L-cysteine(4-)
dipyrromethane cofactor(4-)
pyrromethane cofactor(4-)

>  <PubMed citation Links>  (38) 
18936296
3042456

>  <RESID Database Links>  (38) 
AA0252

>  <PubChem Database Links>  (38) 
SID: 121270152

>  <Last Modified>  (38) 
17 Apr 2020

$$$$

     RDKit          2D

 15 14  0  0  1  0  0  0  0  0999 V2000
   10.3993  -13.5144    0.0000 C   0  0  0  0  0  0  0  0  0  0  0  0
    9.5334  -14.0144    0.0000 N   0  0  0  0  0  0  0  0  0  0  0  0
   12.9973  -14.0144    0.0000 C   0  0  0  0  0  0  0  0  0  0  0  0
   12.1315  -13.5144    0.0000 C   0  0  0  0  0  0  0  0  0  0  0  0
   11.2653  -14.0144    0.0000 C   0  0  0  0  0  0  0  0  0  0  0  0
    8.6673  -13.5144    0.0000 C   0  0  0  0  0  0  0  0  0  0  0  0
   13.8634  -13.5144    0.0000 C   0  0  0  0  0  0  0  0  0  0  0  0
    8.6673  -12.5144    0.0000 N   0  0  0  0  0  0  0  0  0  0  0  0
   13.8634  -12.5144    0.0000 O   0  0  0  0  0  0  0  0  0  0  0  0
    7.8012  -14.0144    0.0000 N   0  0  0  0  0  0  0  0  0  0  0  0
   12.9973  -15.0143    0.0000 N   0  0  0  0  0  0  0  0  0  0  0  0
   14.7295  -14.0144    0.0000 *   0  0  0  0  0  0  0  0  0  0  0  0
    7.8012  -15.0143    0.0000 C   0  0  0  0  0  0  0  0  0  0  0  0
    6.9353  -13.5144    0.0000 C   0  0  0  0  0  0  0  0  0  0  0  0
   13.8634  -15.5145    0.0000 *   0  0  0  0  0  0  0  0  0  0  0  0
  2  1  1  0
  6  2  1  0
  7  3  1  0
  3 11  1  0
  3  4  1  1
  1  5  1  0
  4  5  1  0
  6  8  2  0
  6 10  1  0
  7  9  2  0
 12  7  1  0
 13 10  1  0
 14 10  1  0
 11 15  1  0
M  CHG  1   8   1
V   12 *
V   15 *
M  END
>  <ChEBI ID>  (39) 
CHEBI:61897

>  <ChEBI Name>  (39) 
N(omega),N(omega)-dimethyl-L-arginine(1+) residue

>  <Star>  (39) 
3

>  <Definition>  (39) 
An alpha-amino-acid residue cation resulting from the protonation of the imine nitrogen of N(omega),N(omega)-dimethyl-L-arginine residue.

>  <SMILES>  (39) 
C(NC(=[NH2+])N(C)C)CC[C@@H](C(=O)*)N*

>  <Formulae>  (39) 
C8H17N4O

>  <Charge>  (39) 
+1

>  <Mass>  (39) 
185.247

>  <Monoisotopic Mass>  (39) 
185.14024

>  <Synonyms>  (39) 
N(5)-((dimethylamino)iminomethyl)-L-ornithine residue(1+)
N(5)-((dimethylamino)iminomethyl)-L-ornithine(1+) residue
N(5)-(N,N-dimethylcarbamimidoyl)-L-ornithine residue(1+)
N(5)-(N,N-dimethylcarbamimidoyl)-L-ornithine(1+) residue
N(5)-[(dimethylamino)(imino)methyl]-L-ornithine residue(1+)
N(G),N(G)-dimethylarginine residue(1+)
N(G),N(G)-dimethylarginine(1+) residue
N(G)-dimethylarginine residue(1+)
N(G)-dimethylarginine(1+) residue
N(G1),N(G1)-dimethylarginine residue(1+)
N(G1),N(G1)-dimethylarginine(1+) residue
N(omega),N(omega)-dimethyl-L-arginine residue
N(omega),N(omega)-dimethyl-L-arginine residue(1+)
N,N-dimethylarginine residue(1+)
N,N-dimethylarginine(1+) residue
asymmetric dimethylarginine residue(1+)
asymmetric dimethylarginine(1+) residue
guanidino-N,N-dimethylarginine residue(1+)
guanidino-N,N-dimethylarginine(1+) residue

>  <PubChem Database Links>  (39) 
SID: 121270036

>  <Rhea Database Links>  (39) 
RHEA:58352
RHEA:48104
RHEA:48096
RHEA:58468

>  <Last Modified>  (39) 
15 Oct 2015

$$$$

     RDKit          2D

 18 19  0  0  1  0  0  0  0  0999 V2000
    8.6699  -15.1305    0.0000 C   0  0  0  0  0  0  0  0  0  0  0  0
    7.7848  -16.1163    0.0000 N   0  0  0  0  0  0  0  0  0  0  0  0
    8.5693  -15.9352    0.0000 C   0  0  0  0  0  0  0  0  0  0  0  0
    7.9055  -14.8087    0.0000 C   0  0  0  0  0  0  0  0  0  0  0  0
   10.8023  -14.7081    0.0000 C   0  0  0  0  0  0  0  0  0  0  0  0
    9.3539  -14.7081    0.0000 C   0  0  0  0  0  0  0  0  0  0  0  0
    7.3623  -15.4122    0.0000 C   0  0  0  0  0  0  0  0  0  0  0  0
   10.0781  -15.1104    0.0000 C   0  0  0  0  0  0  0  0  0  0  0  0
   11.5099  -15.1323    0.0000 O   0  0  0  0  0  0  0  0  0  0  0  0
   10.0781  -15.9352    0.0000 N   0  0  0  0  0  0  0  0  0  0  0  0
   10.8159  -13.8832    0.0000 O   0  0  0  0  0  0  0  0  0  0  0  0
    7.6238  -14.0040    0.0000 C   0  0  0  0  0  0  0  0  0  0  0  0
    6.5375  -15.2512    0.0000 C   0  0  0  0  0  0  0  0  0  0  0  0
    6.8192  -13.8632    0.0000 C   0  0  0  0  0  0  0  0  0  0  0  0
    6.2760  -14.4868    0.0000 C   0  0  0  0  0  0  0  0  0  0  0  0
    5.4714  -14.3259    0.0000 Br  0  0  0  0  0  0  0  0  0  0  0  0
   10.7926  -16.3477    0.0000 *   0  0  0  0  0  0  0  0  0  0  0  0
   12.2244  -14.7198    0.0000 *   0  0  0  0  0  0  0  0  0  0  0  0
  3  1  2  0
  4  1  1  0
  6  1  1  0
  3  2  1  0
  7  2  1  0
  7  4  2  0
 12  4  1  0
  8  5  1  0
  9  5  1  0
 11  5  2  0
  8  6  1  1
 13  7  1  0
  8 10  1  0
 14 12  2  0
 15 13  2  0
 15 14  1  0
 16 15  1  0
 10 17  1  0
  9 18  1  0
V   17 *
V   18 *
M  END
>  <ChEBI ID>  (40) 
CHEBI:61899

>  <ChEBI Name>  (40) 
L-6'-bromotryptophan residue

>  <Star>  (40) 
3

>  <Definition>  (40) 
An alpha-amino-acid residue derived from L-6'-bromotryptophan.

>  <SMILES>  (40) 
C1(=CNC2=C1C=CC(=C2)Br)C[C@@H](C(O*)=O)N*

>  <Formulae>  (40) 
C11H9BrN2O2

>  <Charge>  (40) 
0

>  <Mass>  (40) 
281.10500

>  <Monoisotopic Mass>  (40) 
279.98474

>  <Synonyms>  (40) 
6-bromo-L-tryptophan residue
L-6'-bromotryptophan residue

>  <PubChem Database Links>  (40) 
SID: 121270038

>  <Last Modified>  (40) 
04 Jun 2019

$$$$

     RDKit          2D

 12 11  0  0  1  0  0  0  0  0999 V2000
    9.1402   -5.1452    0.0000 C   0  0  0  0  0  0  0  0  0  0  0  0
    8.4270   -5.5599    0.0000 C   0  0  0  0  0  0  0  0  0  0  0  0
    9.1402   -4.3325    0.0000 O   0  0  0  0  0  0  0  0  0  0  0  0
    8.4435   -6.3726    0.0000 N   0  0  0  0  0  0  0  0  0  0  0  0
    4.8774   -5.1452    0.0000 N   0  0  0  0  0  0  0  0  0  0  0  0
    5.5906   -5.5434    0.0000 C   0  0  0  0  0  0  0  0  0  0  0  0
    7.7303   -5.1452    0.0000 C   0  0  0  0  0  0  0  0  0  0  0  0
    6.3038   -5.1452    0.0000 C   0  0  0  0  0  0  0  0  0  0  0  0
    7.0171   -5.5599    0.0000 C   0  0  0  0  0  0  0  0  0  0  0  0
    4.1690   -5.5681    0.0000 C   0  0  0  0  0  0  0  0  0  0  0  0
    9.1598   -6.7819    0.0000 *   0  0  0  0  0  0  0  0  0  0  0  0
    9.8547   -5.5577    0.0000 *   0  0  0  0  0  0  0  0  0  0  0  0
  2  1  1  0
  3  1  2  0
  2  4  1  0
  2  7  1  1
  6  5  1  0
  8  6  1  0
  9  7  1  0
  9  8  1  0
  5 10  1  0
  4 11  1  0
  1 12  1  0
M  CHG  1   5   1
V   11 *
V   12 *
M  END
>  <ChEBI ID>  (41) 
CHEBI:61929

>  <ChEBI Name>  (41) 
N(6)-methyl-L-lysinium residue

>  <Star>  (41) 
3

>  <Definition>  (41) 
An alpha-amino-acid residue cation resulting from the protonation of the N(6) nitrogen of N(6)-methyl-L-lysine residue

>  <SMILES>  (41) 
C([C@@H](N*)CCCC[NH2+]C)(=O)*

>  <Formulae>  (41) 
C7H15N2O

>  <Charge>  (41) 
+1

>  <Mass>  (41) 
143.20680

>  <Monoisotopic Mass>  (41) 
143.11844

>  <Synonyms>  (41) 
N(6)-methyl-L-lysine residue
N(6)-methyl-L-lysine residue(1+)
N(6)-methyl-L-lysine(1+) residue

>  <PubChem Database Links>  (41) 
SID: 124349251

>  <Rhea Database Links>  (41) 
RHEA:55548
RHEA:55544
RHEA:60344
RHEA:60216
RHEA:21788
RHEA:67808
RHEA:60924
RHEA:60336
RHEA:60348
RHEA:60220
RHEA:60300
RHEA:21696
RHEA:67112
RHEA:21556
RHEA:60224
RHEA:60312
RHEA:10784
RHEA:60280
RHEA:60236
RHEA:60284
RHEA:60332
RHEA:60200
RHEA:59268
RHEA:60232
RHEA:67116
RHEA:67832
RHEA:60264
RHEA:60296
RHEA:60196
RHEA:33451
RHEA:54196
RHEA:51736
RHEA:67804
RHEA:60192
RHEA:60256
RHEA:60316
RHEA:61948
RHEA:60268
RHEA:10024
RHEA:24312
RHEA:60248

>  <Last Modified>  (41) 
20 Jul 2012

$$$$

     RDKit          2D

 13 13  0  0  1  0  0  0  0  0999 V2000
   12.1167   -6.2480    0.0000 C   0  0  0  0  0  0  0  0  0  0  0  0
   11.4022   -6.6605    0.0000 C   0  0  0  0  0  0  0  0  0  0  0  0
   10.6878   -6.2480    0.0000 C   0  0  0  0  0  0  0  0  0  0  0  0
   12.8312   -6.6605    0.0000 N   0  0  0  0  0  0  0  0  0  0  0  0
   12.1167   -5.4230    0.0000 O   0  0  0  0  0  0  0  0  0  0  0  0
   11.4022   -7.4854    0.0000 N   0  0  0  0  0  0  0  0  0  0  0  0
    9.9733   -6.6605    0.0000 C   0  0  0  0  0  0  0  0  0  0  0  0
    9.9733   -7.4855    0.0000 C   0  0  0  0  0  0  0  0  0  0  0  0
    9.2588   -6.2480    0.0000 C   0  0  0  0  0  0  0  0  0  0  0  0
    9.2588   -7.8980    0.0000 C   0  0  0  0  0  0  0  0  0  0  0  0
    8.5443   -6.6605    0.0000 C   0  0  0  0  0  0  0  0  0  0  0  0
    8.5443   -7.4855    0.0000 C   0  0  0  0  0  0  0  0  0  0  0  0
   10.6878   -7.8979    0.0000 *   0  0  0  0  0  0  0  0  0  0  0  0
  2  1  1  0
  5  1  2  0
  4  1  1  0
  2  3  1  1
  2  6  1  0
  7  3  1  0
  8  7  2  0
  9  7  1  0
 10  8  1  0
 11  9  2  0
 12 10  2  0
 12 11  1  0
  6 13  1  0
V   13 *
M  END
>  <ChEBI ID>  (42) 
CHEBI:61957

>  <ChEBI Name>  (42) 
L-phenylalanine amide group

>  <Star>  (42) 
3

>  <Definition>  (42) 
An alkylamino group derived from L-phenylalanine amide.

>  <SMILES>  (42) 
C([C@H](CC=1C=CC=CC1)N*)(=O)N

>  <Formulae>  (42) 
C9H11N2O

>  <Charge>  (42) 
0

>  <Mass>  (42) 
163.19640

>  <Monoisotopic Mass>  (42) 
163.08714

>  <Synonyms>  (42) 
C-terminal L-phenylalanine amide residue
L-phenylalaninamide group
phenylalaninamide group
phenylalanine amide group

>  <PubChem Database Links>  (42) 
SID: 121270071

>  <Last Modified>  (42) 
16 Jan 2020

$$$$

     RDKit          2D

 14 13  0  0  1  0  0  0  0  0999 V2000
   14.4693   -5.4058    0.0000 *   0  0  0  0  0  0  0  0  0  0  0  0
   13.6033   -4.9059    0.0000 C   0  0  0  0  0  0  0  0  0  0  0  0
   13.6033   -3.9058    0.0000 O   0  0  0  0  0  0  0  0  0  0  0  0
   12.7373   -5.4059    0.0000 C   0  0  0  0  0  0  0  0  0  0  0  0
   12.7373   -6.4059    0.0000 N   0  0  0  0  0  0  0  0  0  0  0  0
   11.8713   -4.9058    0.0000 C   0  0  0  0  0  0  0  0  0  0  0  0
   11.0052   -5.4058    0.0000 C   0  0  0  0  0  0  0  0  0  0  0  0
   10.1393   -4.9057    0.0000 C   0  0  0  0  0  0  0  0  0  0  0  0
    9.2732   -5.4057    0.0000 C   0  0  0  0  0  0  0  0  0  0  0  0
    8.4072   -4.9057    0.0000 N   0  0  0  0  0  0  0  0  0  0  0  0
   11.8713   -6.9059    0.0000 *   0  0  0  0  0  0  0  0  0  0  0  0
    7.5411   -5.4056    0.0000 C   0  0  0  0  0  0  0  0  0  0  0  0
    8.4073   -3.9057    0.0000 C   0  0  0  0  0  0  0  0  0  0  0  0
    7.5412   -4.4057    0.0000 C   0  0  0  0  0  0  0  0  0  0  0  0
  2  1  1  0
  3  2  2  0
  4  2  1  0
  4  5  1  0
  4  6  1  1
  7  6  1  0
  8  7  1  0
  9  8  1  0
 10  9  1  0
  5 11  1  0
 10 12  1  0
 10 13  1  0
 10 14  1  0
M  CHG  1  10   1
V    1 *
V   11 *
M  END
>  <ChEBI ID>  (43) 
CHEBI:61961

>  <ChEBI Name>  (43) 
N(6),N(6),N(6)-trimethyl-L-lysine residue

>  <Star>  (43) 
3

>  <Definition>  (43) 
An alpha-amino-acid residue cation derived from N(6),N(6),N(6)-trimethyl-L-lysine.

>  <SMILES>  (43) 
*C(=O)[C@@H](N*)CCCC[N+](C)(C)C

>  <Formulae>  (43) 
C9H19N2O

>  <Charge>  (43) 
+1

>  <Mass>  (43) 
171.260

>  <Monoisotopic Mass>  (43) 
171.14974

>  <Synonyms>  (43) 
N(6),N(6),N(6)-trimethyl-L-lysine residue
epsilon-N-trimethyl-L-lysine residue
epsilon-trimethyl-L-lysine residue
epsilon-trimethyllysine residue

>  <PubChem Database Links>  (43) 
SID: 121270074

>  <Rhea Database Links>  (43) 
RHEA:60272
RHEA:60328
RHEA:54200
RHEA:55552
RHEA:60304
RHEA:50996
RHEA:60324
RHEA:61952
RHEA:51000
RHEA:67120
RHEA:60208
RHEA:60276
RHEA:60240
RHEA:60260
RHEA:64456
RHEA:60200
RHEA:60224
RHEA:60204
RHEA:54192
RHEA:21840
RHEA:60320
RHEA:61992
RHEA:60340
RHEA:67108
RHEA:60236
RHEA:60288
RHEA:60228
RHEA:60292
RHEA:60212

>  <Last Modified>  (43) 
09 Nov 2016

$$$$

     RDKit          2D

  9  8  0  0  1  0  0  0  0  0999 V2000
   11.9256   -5.6282    0.0000 C   0  0  0  0  0  0  0  0  0  0  0  0
   11.2111   -6.0407    0.0000 C   0  0  0  0  0  0  0  0  0  0  0  0
   10.4967   -5.6282    0.0000 C   0  0  0  0  0  0  0  0  0  0  0  0
   12.6400   -6.0407    0.0000 *   0  0  0  0  0  0  0  0  0  0  0  0
   11.9256   -4.8032    0.0000 O   0  0  0  0  0  0  0  0  0  0  0  0
   11.2111   -6.8656    0.0000 N   0  0  0  0  0  0  0  0  0  0  0  0
    9.7822   -6.0407    0.0000 S   0  0  0  0  0  0  0  0  0  0  0  0
    9.0677   -5.6282    0.0000 S   0  0  0  0  0  0  0  0  0  0  0  0
   10.4966   -7.2781    0.0000 *   0  0  0  0  0  0  0  0  0  0  0  0
  2  1  1  0
  5  1  2  0
  4  1  1  0
  2  3  1  1
  2  6  1  0
  7  3  1  0
  7  8  1  0
  6  9  1  0
V    4 *
V    9 *
M  END
>  <ChEBI ID>  (44) 
CHEBI:61963

>  <ChEBI Name>  (44) 
3-disulfanyl-L-alanine residue

>  <Star>  (44) 
3

>  <Definition>  (44) 
An alpha-amino-acid residue derived from 3-disulfanyl-L-alanine.

>  <SMILES>  (44) 
C([C@H](CSS)N*)(=O)*

>  <Formulae>  (44) 
C3H5NOS2

>  <Charge>  (44) 
0

>  <Mass>  (44) 
135.20800

>  <Monoisotopic Mass>  (44) 
134.98126

>  <Synonyms>  (44) 
3-disulfanylalanine residue
S-sulfanyl-L-cysteine residue
thiocysteine residue

>  <PubChem Database Links>  (44) 
SID: 121270076

>  <Rhea Database Links>  (44) 
RHEA:56296
RHEA:47016
RHEA:17457
RHEA:47012
RHEA:47024
RHEA:24176
RHEA:47032
RHEA:56300
RHEA:47040
RHEA:47020
RHEA:57048
RHEA:43340
RHEA:48612
RHEA:48264
RHEA:43888
RHEA:51224

>  <Last Modified>  (44) 
27 Jul 2015

$$$$

     RDKit          2D

 10 10  0  0  1  0  0  0  0  0999 V2000
   11.9560   -9.0965    0.0000 C   0  0  0  0  0  0  0  0  0  0  0  0
   11.2975   -9.5771    0.0000 C   0  0  0  0  0  0  0  0  0  0  0  0
   12.6257   -9.5771    0.0000 N   0  0  0  0  0  0  0  0  0  0  0  0
   11.9560   -8.2753    0.0000 C   0  0  0  0  0  0  0  0  0  0  0  0
   11.5472  -10.3641    0.0000 C   0  0  0  0  0  0  0  0  0  0  0  0
   12.3722  -10.3641    0.0000 C   0  0  0  0  0  0  0  0  0  0  0  0
   12.6696   -7.8615    0.0000 *   0  0  0  0  0  0  0  0  0  0  0  0
   11.2370   -7.8667    0.0000 O   0  0  0  0  0  0  0  0  0  0  0  0
   11.0591  -11.0301    0.0000 O   0  0  0  0  0  0  0  0  0  0  0  0
   13.4092   -9.3188    0.0000 *   0  0  0  0  0  0  0  0  0  0  0  0
  1  2  1  0
  1  3  1  0
  1  4  1  1
  2  5  1  0
  3  6  1  0
  4  7  1  0
  4  8  2  0
  5  9  1  6
  5  6  1  0
  3 10  1  0
V    7 *
V   10 *
M  END
>  <ChEBI ID>  (45) 
CHEBI:61965

>  <ChEBI Name>  (45) 
trans-4-hydroxy-L-proline residue

>  <Star>  (45) 
3

>  <Definition>  (45) 
An alpha-amino-acid residue derived from trans-4-hydroxy-L-proline.

>  <SMILES>  (45) 
[C@H]1(C[C@@H](O)CN1*)C(*)=O

>  <Formulae>  (45) 
C5H7NO2

>  <Charge>  (45) 
0

>  <Mass>  (45) 
113.11460

>  <Monoisotopic Mass>  (45) 
113.04768

>  <Synonyms>  (45) 
hydroxyproline residue
trans-4-hydroxy-L-proline residue

>  <PubChem Database Links>  (45) 
SID: 121270078

>  <Rhea Database Links>  (45) 
RHEA:48400
RHEA:49472
RHEA:63484
RHEA:18945
RHEA:48936
RHEA:17841

>  <Last Modified>  (45) 
27 Jul 2015

$$$$

     RDKit          2D

  9  8  0  0  1  0  0  0  0  0999 V2000
   14.4215   -5.6882    0.0000 C   0  0  0  0  0  0  0  0  0  0  0  0
   13.7070   -6.1008    0.0000 C   0  0  0  0  0  0  0  0  0  0  0  0
   12.9926   -5.6882    0.0000 C   0  0  0  0  0  0  0  0  0  0  0  0
   15.1360   -6.1008    0.0000 *   0  0  0  0  0  0  0  0  0  0  0  0
   14.4215   -4.8632    0.0000 O   0  0  0  0  0  0  0  0  0  0  0  0
   13.7070   -6.9258    0.0000 N   0  0  0  0  0  0  0  0  0  0  0  0
   12.2780   -6.1008    0.0000 S   0  0  0  0  0  0  0  0  0  0  0  0
   11.5635   -5.6882    0.0000 O   0  0  0  0  0  0  0  0  0  0  0  0
   12.9925   -7.3383    0.0000 *   0  0  0  0  0  0  0  0  0  0  0  0
  2  1  1  0
  5  1  2  0
  4  1  1  0
  2  3  1  1
  2  6  1  0
  7  3  1  0
  7  8  1  0
  6  9  1  0
V    4 *
V    9 *
M  END
>  <ChEBI ID>  (46) 
CHEBI:61973

>  <ChEBI Name>  (46) 
S-hydroxy-L-cysteine residue

>  <Star>  (46) 
3

>  <Definition>  (46) 
An alpha-amino-acid residue derived from S-hydroxy-L-cysteine.

>  <SMILES>  (46) 
C([C@H](CSO)N*)(=O)*

>  <Formulae>  (46) 
C3H5NO2S

>  <Charge>  (46) 
0

>  <Mass>  (46) 
119.14200

>  <Monoisotopic Mass>  (46) 
119.00410

>  <Synonyms>  (46) 
S-hydroxy-L-cysteine residue
S-hydroxycysteine residue

>  <PubChem Database Links>  (46) 
SID: 121270083

>  <Rhea Database Links>  (46) 
RHEA:67124
RHEA:17545

>  <Last Modified>  (46) 
25 Aug 2017

$$$$

     RDKit          2D

 10  9  0  0  1  0  0  0  0  0999 V2000
   13.3075   -5.6615    0.0000 C   0  0  0  0  0  0  0  0  0  0  0  0
   12.5930   -5.2490    0.0000 C   0  0  0  0  0  0  0  0  0  0  0  0
   14.0220   -5.2490    0.0000 C   0  0  0  0  0  0  0  0  0  0  0  0
   13.3075   -6.4864    0.0000 N   0  0  0  0  0  0  0  0  0  0  0  0
   11.8786   -5.6615    0.0000 S   0  0  0  0  0  0  0  0  0  0  0  0
   14.0220   -4.4240    0.0000 O   0  0  0  0  0  0  0  0  0  0  0  0
   14.7364   -5.6615    0.0000 *   0  0  0  0  0  0  0  0  0  0  0  0
   11.8786   -6.4864    0.0000 O   0  0  0  0  0  0  0  0  0  0  0  0
   11.1641   -5.2490    0.0000 O   0  0  0  0  0  0  0  0  0  0  0  0
   12.5930   -6.8989    0.0000 *   0  0  0  0  0  0  0  0  0  0  0  0
  1  2  1  1
  1  3  1  0
  1  4  1  0
  2  5  1  0
  3  6  2  0
  3  7  1  0
  5  8  2  0
  9  5  1  0
  4 10  1  0
M  CHG  1   9  -1
V    7 *
V   10 *
M  END
>  <ChEBI ID>  (47) 
CHEBI:61974

>  <ChEBI Name>  (47) 
3-sulfino-L-alanine(1-) residue

>  <Star>  (47) 
3

>  <Definition>  (47) 
An alpha-amino-acid residue anion derived from 3-sulfino-L-alanine(1-).

>  <SMILES>  (47) 
[C@H](CS(=O)[O-])(C(=O)*)N*

>  <Formulae>  (47) 
C3H4NO3S

>  <Charge>  (47) 
-1

>  <Mass>  (47) 
134.13400

>  <Monoisotopic Mass>  (47) 
133.99119

>  <Synonyms>  (47) 
S-hydroxy-S-oxo-L-cysteine residue

>  <PubChem Database Links>  (47) 
SID: 121270084

>  <Last Modified>  (47) 
10 Mar 2022

$$$$

     RDKit          2D

 12 11  0  0  1  0  0  0  0  0999 V2000
   13.5727   -5.4290    0.0000 C   0  0  0  0  0  0  0  0  0  0  0  0
   12.8581   -5.8415    0.0000 C   0  0  0  0  0  0  0  0  0  0  0  0
   12.1438   -5.4290    0.0000 C   0  0  0  0  0  0  0  0  0  0  0  0
   14.2872   -5.8415    0.0000 *   0  0  0  0  0  0  0  0  0  0  0  0
   13.5727   -4.6040    0.0000 O   0  0  0  0  0  0  0  0  0  0  0  0
   12.8581   -6.6664    0.0000 N   0  0  0  0  0  0  0  0  0  0  0  0
   11.4292   -5.8415    0.0000 S   0  0  0  0  0  0  0  0  0  0  0  0
   10.7147   -5.4290    0.0000 P   0  0  0  0  0  0  0  0  0  0  0  0
   10.0004   -5.8414    0.0000 O   0  0  0  0  0  0  0  0  0  0  0  0
   10.7148   -4.6040    0.0000 O   0  0  0  0  0  0  0  0  0  0  0  0
   10.5013   -6.2258    0.0000 O   0  0  0  0  0  0  0  0  0  0  0  0
   12.1438   -7.0789    0.0000 *   0  0  0  0  0  0  0  0  0  0  0  0
  2  1  1  0
  5  1  2  0
  4  1  1  0
  2  3  1  1
  2  6  1  0
  7  3  1  0
  7  8  1  0
  8  9  1  0
  8 10  2  0
  8 11  1  0
  6 12  1  0
M  CHG  2   9  -1  11  -1
V    4 *
V   12 *
M  END
>  <ChEBI ID>  (48) 
CHEBI:61975

>  <ChEBI Name>  (48) 
S-phospho-L-cysteine(2-) residue

>  <Star>  (48) 
3

>  <Definition>  (48) 
An alpha-amino-acid residue anion derived from S-phospho-L-cysteine(2-).

>  <SMILES>  (48) 
CN[C@@H](CSP([O-])([O-])=O)C(C)=O

>  <Formulae>  (48) 
C3H4NO4PS

>  <Charge>  (48) 
-2

>  <Mass>  (48) 
211.17600

>  <Monoisotopic Mass>  (48) 
180.95987

>  <Synonyms>  (48) 
S-phospho-L-cysteine residue

>  <PubChem Database Links>  (48) 
SID: 121270085

>  <Last Modified>  (48) 
15 Jan 2020

$$$$

     RDKit          2D

 13 12  0  0  1  0  0  0  0  0999 V2000
    9.7192   -5.1752    0.0000 C   0  0  0  0  0  0  0  0  0  0  0  0
   10.4369   -4.7683    0.0000 C   0  0  0  0  0  0  0  0  0  0  0  0
   11.1481   -5.1866    0.0000 C   0  0  0  0  0  0  0  0  0  0  0  0
   13.3078   -4.7682    0.0000 C   0  0  0  0  0  0  0  0  0  0  0  0
   14.0255   -5.1750    0.0000 *   0  0  0  0  0  0  0  0  0  0  0  0
   12.5901   -5.1750    0.0000 C   0  0  0  0  0  0  0  0  0  0  0  0
   13.3078   -3.9548    0.0000 O   0  0  0  0  0  0  0  0  0  0  0  0
    9.0015   -4.7683    0.0000 N   0  0  0  0  0  0  0  0  0  0  0  0
   11.8963   -4.7683    0.0000 C   0  0  0  0  0  0  0  0  0  0  0  0
   12.5840   -6.0000    0.0000 N   0  0  0  0  0  0  0  0  0  0  0  0
    8.9948   -3.9434    0.0000 C   0  0  0  0  0  0  0  0  0  0  0  0
    8.2904   -5.1866    0.0000 C   0  0  0  0  0  0  0  0  0  0  0  0
   11.8665   -6.4072    0.0000 *   0  0  0  0  0  0  0  0  0  0  0  0
  1  8  1  0
  2  1  1  0
  3  2  1  0
  3  9  1  0
  5  4  1  0
  6  4  1  0
  7  4  2  0
  6  9  1  1
  6 10  1  0
  8 11  1  0
  8 12  1  0
 10 13  1  0
M  CHG  1   8   1
V    5 *
V   13 *
M  END
>  <ChEBI ID>  (49) 
CHEBI:61976

>  <ChEBI Name>  (49) 
N(6),N(6)-dimethyl-L-lysine(1+) residue

>  <Star>  (49) 
3

>  <Definition>  (49) 
An alpha-amino-acid residue cation derived from N(6),N(6)-dimethyl-L-lysine(1+).

>  <SMILES>  (49) 
C([NH+](C)C)CCC[C@@H](C(*)=O)N*

>  <Formulae>  (49) 
C8H17N2O

>  <Charge>  (49) 
+1

>  <Mass>  (49) 
157.23340

>  <Monoisotopic Mass>  (49) 
157.13409

>  <Synonyms>  (49) 
N(6),N(6)-dimethyl-L-lysine residue

>  <PubChem Database Links>  (49) 
SID: 121270086

>  <Rhea Database Links>  (49) 
RHEA:60336
RHEA:60316
RHEA:67116
RHEA:60216
RHEA:60240
RHEA:42032
RHEA:60348
RHEA:54200
RHEA:60340
RHEA:67800
RHEA:21696
RHEA:64444
RHEA:33451
RHEA:60272
RHEA:60228
RHEA:60248
RHEA:64452
RHEA:55548
RHEA:64448
RHEA:60308
RHEA:60192
RHEA:67120
RHEA:60232
RHEA:60284
RHEA:61992
RHEA:21788
RHEA:60244
RHEA:60288
RHEA:21840
RHEA:60268
RHEA:54196
RHEA:55552
RHEA:61948
RHEA:61952
RHEA:60300
RHEA:60304
RHEA:60204
RHEA:60212
RHEA:60320
RHEA:60188

>  <Last Modified>  (49) 
24 May 2011

$$$$

     RDKit          2D

 13 12  0  0  1  0  0  0  0  0999 V2000
   12.6041   -4.6176    0.0000 C   0  0  0  0  0  0  0  0  0  0  0  0
   11.8902   -5.0172    0.0000 C   0  0  0  0  0  0  0  0  0  0  0  0
   11.1765   -4.6033    0.0000 C   0  0  0  0  0  0  0  0  0  0  0  0
   11.1907   -3.7752    0.0000 C   0  0  0  0  0  0  0  0  0  0  0  0
   13.3240   -5.0207    0.0000 *   0  0  0  0  0  0  0  0  0  0  0  0
   11.8902   -5.8311    0.0000 N   0  0  0  0  0  0  0  0  0  0  0  0
   12.6183   -3.7752    0.0000 O   0  0  0  0  0  0  0  0  0  0  0  0
   10.4769   -5.0030    0.0000 O   0  0  0  0  0  0  0  0  0  0  0  0
    9.7631   -4.6033    0.0000 P   0  0  0  0  0  0  0  0  0  0  0  0
    9.3492   -5.3170    0.0000 O   0  0  0  0  0  0  0  0  0  0  0  0
    9.0350   -4.1894    0.0000 O   0  0  0  0  0  0  0  0  0  0  0  0
   10.1628   -3.8753    0.0000 O   0  0  0  0  0  0  0  0  0  0  0  0
   11.1757   -6.2436    0.0000 *   0  0  0  0  0  0  0  0  0  0  0  0
  1  2  1  0
  3  2  1  0
  2  6  1  1
  5  1  1  0
  7  1  2  0
  8  3  1  0
  3  4  1  6
  9  8  1  0
 11  9  1  0
 12  9  1  0
 10  9  2  0
  6 13  1  0
M  CHG  2  11  -1  12  -1
V    5 *
V   13 *
M  END
>  <ChEBI ID>  (50) 
CHEBI:61977

>  <ChEBI Name>  (50) 
O-phosphonato-L-threonine(2-) residue

>  <Star>  (50) 
3

>  <Definition>  (50) 
An alpha-amino-acid residue anion derived from O-phosphonato-L-threonine(2-).

>  <SMILES>  (50) 
C[C@@H](OP([O-])([O-])=O)[C@H](N-*)C(-*)=O

>  <Formulae>  (50) 
C4H6NO5P

>  <Charge>  (50) 
-2

>  <Mass>  (50) 
179.06900

>  <Monoisotopic Mass>  (50) 
178.99836

>  <Synonyms>  (50) 
O-phospho-L-threonine residue

>  <PubChem Database Links>  (50) 
SID: 124403752

>  <Rhea Database Links>  (50) 
RHEA:53988
RHEA:43692
RHEA:46608
RHEA:56924
RHEA:53900
RHEA:11424
RHEA:53920
RHEA:53904
RHEA:47004
RHEA:44880
RHEA:56552
RHEA:43696

>  <Last Modified>  (50) 
06 Nov 2014

$$$$

     RDKit          2D

  9  8  0  0  1  0  0  0  0  0999 V2000
   11.0797   -6.8721    0.0000 C   0  0  0  0  0  0  0  0  0  0  0  0
   10.3577   -7.2743    0.0000 C   0  0  0  0  0  0  0  0  0  0  0  0
   11.1003   -6.0575    0.0000 O   0  0  0  0  0  0  0  0  0  0  0  0
   10.3577   -8.0993    0.0000 N   0  0  0  0  0  0  0  0  0  0  0  0
   11.7912   -7.2949    0.0000 O   0  0  0  0  0  0  0  0  0  0  0  0
    9.6462   -6.8721    0.0000 C   0  0  0  0  0  0  0  0  0  0  0  0
   12.5130   -6.9030    0.0000 C   0  0  0  0  0  0  0  0  0  0  0  0
    8.9292   -7.2872    0.0000 S   0  0  0  0  0  0  0  0  0  0  0  0
    9.6432   -8.5118    0.0000 *   0  0  0  0  0  0  0  0  0  0  0  0
  2  1  1  0
  3  1  2  0
  5  1  1  0
  2  4  1  0
  2  6  1  1
  7  5  1  0
  6  8  1  0
  4  9  1  0
V    9 *
M  END
>  <ChEBI ID>  (51) 
CHEBI:61989

>  <ChEBI Name>  (51) 
methyl L-cysteinato group

>  <Star>  (51) 
3

>  <Definition>  (51) 
An alkylamino group derived from methyl L-cysteinate.

>  <SMILES>  (51) 
C([C@@H](N*)CS)(=O)OC

>  <Formulae>  (51) 
C4H8NO2S

>  <Charge>  (51) 
0

>  <Mass>  (51) 
134.17700

>  <Monoisotopic Mass>  (51) 
134.02757

>  <Synonyms>  (51) 
C-terminal L-cysteine methyl ester residue
methyl L-cysteinate group
methyl L-cysteinate residue

>  <PubChem Database Links>  (51) 
SID: 121270095

>  <Last Modified>  (51) 
15 Jan 2020

$$$$
ChEBI
     RDKit          2D

 16 16  0  0  1  0  0  0  0  0999 V2000
   20.7248   -9.4067    0.0000 C   0  0  0  0  0  0  0  0  0  0  0  0
   21.3379   -9.9588    0.0000 O   0  0  0  0  0  0  0  0  0  0  0  0
   19.9402   -9.6617    0.0000 C   0  0  0  0  0  0  0  0  0  0  0  0
   19.7687  -10.4686    0.0000 N   0  0  0  0  0  0  0  0  0  0  0  0
   19.3271   -9.1096    0.0000 C   0  0  0  0  0  0  0  0  0  0  0  0
   18.5425   -9.3646    0.0000 C   0  0  0  0  0  0  0  0  0  0  0  0
   17.8751   -8.8797    0.0000 N   0  0  0  0  0  0  0  0  0  0  0  0
   18.2876  -10.1492    0.0000 C   0  0  0  0  0  0  0  0  0  0  0  0
   17.2076   -9.3646    0.0000 C   0  0  0  0  0  0  0  0  0  0  0  0
   17.4626  -10.1492    0.0000 N   0  0  0  0  0  0  0  0  0  0  0  0
   20.8964   -8.5998    0.0000 *   0  0  0  0  0  0  0  0  0  0  0  0
   18.9841  -10.7236    0.0000 *   0  0  0  0  0  0  0  0  0  0  0  0
   17.8751   -8.0547    0.0000 P   0  0  0  0  0  0  0  0  0  0  0  0
   17.8751   -7.2297    0.0000 O   0  0  0  0  0  0  0  0  0  0  0  0
   18.7001   -8.0547    0.0000 O   0  0  0  0  0  0  0  0  0  0  0  0
   17.0501   -8.0547    0.0000 O   0  0  0  0  0  0  0  0  0  0  0  0
  1 11  1  0
  2  1  2  0
  3  1  1  0
  3  4  1  0
  3  5  1  1
 12  4  1  0
  7  6  1  0
  8  6  2  0
  9  7  1  0
 10  8  1  0
  9 10  2  0
  6  5  1  0
  7 13  1  0
 13 14  1  0
 13 15  2  0
 13 16  1  0
M  CHG  2  14  -1  16  -1
V   11 *
V   12 *
M  END
>  <ChEBI ID>  (52) 
CHEBI:64837

>  <ChEBI Name>  (52) 
N(pros)-phosphonato-L-histidine residue

>  <Star>  (52) 
3

>  <Definition>  (52) 
An anionic amino-acid residue formed by loss of both protons from the phospho group of an N(pros)-phospho-L-histidine residue, the principal form present at pH 7.3.

>  <SMILES>  (52) 
C(*)(=O)[C@@H](N*)CC=1N(C=NC1)P([O-])(=O)[O-]

>  <Formulae>  (52) 
C6H6N3O4P

>  <Charge>  (52) 
-2

>  <Mass>  (52) 
215.10330

>  <Monoisotopic Mass>  (52) 
215.00959

>  <Synonyms>  (52) 
N(pros)-phospho-L-histidine residue

>  <PubChem Database Links>  (52) 
SID: 136349143

>  <Rhea Database Links>  (52) 
RHEA:49236
RHEA:42400
RHEA:23880
RHEA:37359
RHEA:47964
RHEA:49260
RHEA:33399
RHEA:49256
RHEA:49300
RHEA:49232
RHEA:33371
RHEA:66784
RHEA:49252
RHEA:22720
RHEA:33363
RHEA:33423
RHEA:42484
RHEA:33367
RHEA:49292
RHEA:49296
RHEA:33307
RHEA:42436
RHEA:49248
RHEA:49240

>  <Last Modified>  (52) 
18 Jun 2012

$$$$

     RDKit          2D

 18 18  0  0  0  0  0  0  0  0999 V2000
   -1.4143    0.7956    0.0000 C   0  0  0  0  0  0  0  0  0  0  0  0
   -2.1288    0.3830    0.0000 C   0  0  0  0  0  0  0  0  0  0  0  0
   -2.1288   -0.4420    0.0000 C   0  0  0  0  0  0  0  0  0  0  0  0
   -1.4143   -0.8545    0.0000 C   0  0  0  0  0  0  0  0  0  0  0  0
   -0.6998   -0.4420    0.0000 C   0  0  0  0  0  0  0  0  0  0  0  0
   -0.6998    0.3830    0.0000 C   0  0  0  0  0  0  0  0  0  0  0  0
    0.0147    0.7955    0.0000 C   0  0  0  0  0  0  0  0  0  0  0  0
    0.7291    0.3830    0.0000 C   0  0  0  0  0  0  0  0  0  0  0  0
    1.4436    0.7955    0.0000 C   0  0  0  0  0  0  0  0  0  0  0  0
    2.1581    0.3830    0.0000 *   0  0  0  0  0  0  0  0  0  0  0  0
    1.4436    1.6205    0.0000 O   0  0  0  0  0  0  0  0  0  0  0  0
    0.7291   -0.4420    0.0000 N   0  0  0  0  0  0  0  0  0  0  0  0
    0.0146   -0.8545    0.0000 *   0  0  0  0  0  0  0  0  0  0  0  0
   -2.8432   -0.8545    0.0000 O   0  0  0  0  0  0  0  0  0  0  0  0
   -2.8432   -1.6795    0.0000 S   0  0  0  0  0  0  0  0  0  0  0  0
   -3.7345   -1.7089    0.0000 O   0  0  0  0  0  0  0  0  0  0  0  0
   -2.0182   -1.6795    0.0000 O   0  0  0  0  0  0  0  0  0  0  0  0
   -2.8432   -2.5045    0.0000 O   0  0  0  0  0  0  0  0  0  0  0  0
  1  2  2  0
  2  3  1  0
  3  4  2  0
  4  5  1  0
  5  6  2  0
  1  6  1  0
  6  7  1  0
  8  7  1  1
  8  9  1  0
  9 10  1  0
  9 11  2  0
  8 12  1  0
 12 13  1  0
  3 14  1  0
 14 15  1  0
 15 16  1  0
 15 17  2  0
 15 18  2  0
M  CHG  1  16  -1
V   10 *
V   13 *
M  END
>  <ChEBI ID>  (53) 
CHEBI:65286

>  <ChEBI Name>  (53) 
L-tyrosine-O-sulfate(1-) residue

>  <Star>  (53) 
3

>  <Definition>  (53) 
An alpha-amino-acid residue anion obtain