ChEBI
     RDKit          2D

 17 19  0  0  1  0  0  0  0  0999 V2000
    2.7076   -7.5568    0.0000 C   0  0  0  0  0  0  0  0  0  0  0  0
    1.9931   -7.9693    0.0000 C   0  0  0  0  0  0  0  0  0  0  0  0
    1.9931   -8.7943    0.0000 C   0  0  0  0  0  0  0  0  0  0  0  0
    2.7076   -9.2068    0.0000 C   0  0  0  0  0  0  0  0  0  0  0  0
    3.4221   -7.9693    0.0000 C   0  0  0  0  0  0  0  0  0  0  0  0
    3.4221   -8.7943    0.0000 C   0  0  0  0  0  0  0  0  0  0  0  0
    4.8510   -8.7943    0.0000 C   0  0  0  0  0  0  0  0  0  0  0  0
    4.8510   -7.9693    0.0000 C   0  0  0  0  0  0  0  0  0  0  0  0
    5.5655   -7.5568    0.0000 C   0  0  0  0  0  0  0  0  0  0  0  0
    6.2799   -6.3192    0.0000 C   0  0  0  0  0  0  0  0  0  0  0  0
    5.5655   -6.7318    0.0000 C   0  0  0  0  0  0  0  0  0  0  0  0
    6.2799   -7.9693    0.0000 C   0  0  0  0  0  0  0  0  0  0  0  0
    6.9944   -7.5568    0.0000 C   0  0  0  0  0  0  0  0  0  0  0  0
    6.9944   -6.7318    0.0000 C   0  0  0  0  0  0  0  0  0  0  0  0
    4.1365   -7.5568    0.0000 O   0  0  0  0  0  0  0  0  0  0  0  0
    4.1365   -9.2068    0.0000 C   0  0  0  0  0  0  0  0  0  0  0  0
    4.1365  -10.0318    0.0000 O   0  0  0  0  0  0  0  0  0  0  0  0
  1  2  2  0
  1  5  1  0
  2  3  1  0
  3  4  2  0
  4  6  1  0
 15  5  1  0
  5  6  2  0
  6 16  1  0
 15  8  1  0
 16  7  1  0
  7  8  1  0
  8  9  1  6
 11  9  1  0
  9 12  2  0
 10 11  2  0
 10 14  1  0
 12 13  1  0
 13 14  2  0
 16 17  1  0
M  END
>  <ChEBI ID>  (1) 
CHEBI:15605

>  <ChEBI Name>  (1) 
(2S)-flavan-4-ol

>  <Star>  (1) 
3

>  <Definition>  (1) 
A hydroxyflavan that is (2S)-flavan substituted by a hydroxy group at position 4.

>  <Secondary ChEBI ID>  (1) 
CHEBI:187
CHEBI:18546
CHEBI:18548
CHEBI:10867

>  <SMILES>  (1) 
OC1C[C@H](Oc2ccccc12)c1ccccc1

>  <InChI>  (1) 
InChI=1S/C15H14O2/c16-13-10-15(11-6-2-1-3-7-11)17-14-9-5-4-8-12(13)14/h1-9,13,15-16H,10H2/t13?,15-/m0/s1

>  <InChIKey>  (1) 
YTMFRMLVZQOBDR-WUJWULDRSA-N

>  <Formulae>  (1) 
C15H14O2

>  <Charge>  (1) 
0

>  <Mass>  (1) 
226.27046

>  <Monoisotopic Mass>  (1) 
226.09938

>  <IUPAC Names>  (1) 
(2S)-2-phenyl-3,4-dihydro-2H-chromen-4-ol

>  <Synonyms>  (1) 
(2S)-2-phenylchroman-4-ol
(2S)-Flavan-4-ol
(2S)-flavan-4-ol

>  <KEGG COMPOUND Database Links>  (1) 
C02345

>  <BKMS-react Database Links>  (1) 
44950

>  <BRENDA Database Links>  (1) 
1.1.1.234

>  <BRENDALigand Database Links>  (1) 
44950

>  <EnzymePortal Database Links>  (1) 
Q84KP0
Q9XES5

>  <IntEnz Database Links>  (1) 
EC 1.1.1.234

>  <MetaboLights Database Links>  (1) 
MTBLS1693

>  <PubChem Database Links>  (1) 
SID: 8143306
CID: 439712

>  <Rhea Database Links>  (1) 
RHEA:11228

>  <SureChEMBL Database Links>  (1) 
SCHEMBL380283

>  <UniProt Database Links>  (1) 
Q9XES5
Q84KP0

>  <Last Modified>  (1) 
05 May 2015

$$$$

     RDKit          2D

 10  9  0  0  1  0  0  0  0  0999 V2000
    1.4289    0.2357    0.0000 C   0  0  0  0  0  0  0  0  0  0  0  0
    0.7145   -0.1768    0.0000 C   0  0  0  0  0  0  0  0  0  0  0  0
   -1.4289    0.2357    0.0000 S   0  0  0  0  0  0  0  0  0  0  0  0
    0.0000    0.2357    0.0000 C   0  0  0  0  0  0  0  0  0  0  0  0
   -0.7145   -0.1768    0.0000 C   0  0  0  0  0  0  0  0  0  0  0  0
   -2.1434   -0.1768    0.0000 C   0  0  0  0  0  0  0  0  0  0  0  0
    1.4289    1.0607    0.0000 O   0  0  0  0  0  0  0  0  0  0  0  0
   -1.4289    1.0607    0.0000 O   0  0  0  0  0  0  0  0  0  0  0  0
    0.7145   -1.0018    0.0000 N   0  0  0  0  0  0  0  0  0  0  0  0
    2.1434   -0.1768    0.0000 O   0  0  0  0  0  0  0  0  0  0  0  0
 10  1  1  0
  1  7  2  0
  1  2  1  0
  2  9  1  1
  3  8  2  0
  2  4  1  0
  4  5  1  0
  3  5  1  0
  3  6  1  0
V   10 *
M  END
>  <ChEBI ID>  (2) 
CHEBI:15989

>  <ChEBI Name>  (2) 
L-methionine S-oxide residue

>  <Star>  (2) 
3

>  <Secondary ChEBI ID>  (2) 
CHEBI:8536
CHEBI:14938

>  <SMILES>  (2) 
CS(=O)CC[C@H](N-*)C(-*)=O

>  <Formulae>  (2) 
C5H9NO2S

>  <Charge>  (2) 
0

>  <Mass>  (2) 
147.19500

>  <Monoisotopic Mass>  (2) 
147.03540

>  <Synonyms>  (2) 
L-methionine S-oxide residue
Protein L-methionine S-oxide

>  <KEGG COMPOUND Database Links>  (2) 
C03895

>  <PubChem Database Links>  (2) 
SID: 49693432

>  <Rhea Database Links>  (2) 
RHEA:49136

>  <Last Modified>  (2) 
04 Aug 2014

$$$$

     RDKit          2D

 12 12  0  0  0  0  0  0  0  0999 V2000
    0.7145    0.4125    0.0000 C   0  0  0  0  0  0  0  0  0  0  0  0
    0.0000    0.8250    0.0000 C   0  0  0  0  0  0  0  0  0  0  0  0
   -0.7145    0.4125    0.0000 C   0  0  0  0  0  0  0  0  0  0  0  0
   -0.7145   -0.4125    0.0000 C   0  0  0  0  0  0  0  0  0  0  0  0
   -1.9840    0.0000    0.0000 C   0  0  0  0  0  0  0  0  0  0  0  0
   -1.4991    0.6674    0.0000 N   0  0  0  0  0  0  0  0  0  0  0  0
    1.4289    0.8250    0.0000 C   0  0  0  0  0  0  0  0  0  0  0  0
    1.4289    1.6500    0.0000 O   0  0  0  0  0  0  0  0  0  0  0  0
   -1.4991   -0.6674    0.0000 N   0  0  0  0  0  0  0  0  0  0  0  0
   -1.7540   -1.4521    0.0000 C   0  0  0  0  0  0  0  0  0  0  0  0
    2.1434    0.4125    0.0000 O   0  0  0  0  0  0  0  0  0  0  0  0
    0.7145   -0.4125    0.0000 N   0  0  0  0  0  0  0  0  0  0  0  0
  1 12  1  1
  1  7  1  0
  1  2  1  0
  3  2  1  0
  6  3  1  0
  4  3  2  0
  9  4  1  0
  5  9  1  0
  5  6  2  0
  7 11  1  0
  8  7  2  0
  9 10  1  0
V   11 *
M  END
>  <ChEBI ID>  (3) 
CHEBI:16367

>  <ChEBI Name>  (3) 
N(tele)-methyl-L-histidine residue

>  <Star>  (3) 
3

>  <Secondary ChEBI ID>  (3) 
CHEBI:43082
CHEBI:8557
CHEBI:14923

>  <SMILES>  (3) 
[C@@H](N*)(C(*)=O)CC=1N=CN(C1)C

>  <Formulae>  (3) 
C7H9N3O

>  <Charge>  (3) 
0

>  <Mass>  (3) 
151.16598

>  <Monoisotopic Mass>  (3) 
151.07456

>  <Synonyms>  (3) 
1'-methyl-L-histidine
4-METHYL-HISTIDINE
N(tele)-methyl-L-histidine residue
Protein Ntau-methyl-L-histidine

>  <DrugBank Database Links>  (3) 
DB04151

>  <KEGG COMPOUND Database Links>  (3) 
C04087

>  <PDBeChem Database Links>  (3) 
HIC

>  <RESID Database Links>  (3) 
AA0317

>  <PubChem Database Links>  (3) 
SID: 53801141

>  <Rhea Database Links>  (3) 
RHEA:19369

>  <UniProt Database Links>  (3) 
Q9UTQ8
P40481

>  <Last Modified>  (3) 
13 Nov 2014

$$$$

     RDKit          2D

 21 21  0  0  1  0  0  0  0  0999 V2000
    0.0000    0.0000    0.0000 N   0  0  0  0  0  0  0  0  0  0  0  0
   -2.0963    1.1651    0.0000 C   0  0  0  0  0  0  0  0  0  0  0  0
   -3.5253    1.1650    0.0000 C   0  0  0  0  0  0  0  0  0  0  0  0
   -2.8108   -0.0725    0.0000 C   0  0  0  0  0  0  0  0  0  0  0  0
   -2.0963   -0.4850    0.0000 C   0  0  0  0  0  0  0  0  0  0  0  0
   -3.5253   -0.4849    0.0000 C   0  0  0  0  0  0  0  0  0  0  0  0
   -2.8108    0.7525    0.0000 N   0  0  0  0  0  0  0  0  0  0  0  0
   -2.8108    1.5776    0.0000 C   0  0  0  0  0  0  0  0  0  0  0  0
    0.4125   -1.2695    0.0000 C   0  0  0  0  0  0  0  0  0  0  0  0
   -0.6674   -0.4849    0.0000 C   0  0  0  0  0  0  0  0  0  0  0  0
   -0.4124   -1.2695    0.0000 N   0  0  0  0  0  0  0  0  0  0  0  0
   -1.3819   -0.0724    0.0000 C   0  0  0  0  0  0  0  0  0  0  0  0
   -4.2397   -0.0724    0.0000 N   0  0  0  0  0  0  0  0  0  0  0  0
   -3.5253   -1.3099    0.0000 O   0  0  0  0  0  0  0  0  0  0  0  0
    0.6674   -0.4849    0.0000 C   0  0  0  0  0  0  0  0  0  0  0  0
    1.3819   -0.0724    0.0000 C   0  0  0  0  0  0  0  0  0  0  0  0
    2.0964   -0.4849    0.0000 C   0  0  0  0  0  0  0  0  0  0  0  0
    2.8108   -0.0724    0.0000 C   0  0  0  0  0  0  0  0  0  0  0  0
    2.8108    0.7526    0.0000 O   0  0  0  0  0  0  0  0  0  0  0  0
    2.0964   -1.3098    0.0000 N   0  0  0  0  0  0  0  0  0  0  0  0
    3.5253   -0.4849    0.0000 O   0  0  0  0  0  0  0  0  0  0  0  0
 15  1  1  0
 10  1  2  0
  7  2  1  0
  7  3  1  0
  4  7  1  0
  4  5  1  1
  4  6  1  0
  5 12  1  0
  6 14  2  0
  6 13  1  0
  7  8  1  0
  9 15  2  0
 11  9  1  0
 10 11  1  0
 12 10  1  0
 15 16  1  0
 17 16  1  0
 17 18  1  0
 17 20  1  1
 18 21  1  0
 18 19  2  0
V   21 *
M  END
>  <ChEBI ID>  (4) 
CHEBI:16692

>  <ChEBI Name>  (4) 
diphthamide residue

>  <Star>  (4) 
3

>  <Definition>  (4) 
An alpha-amino-acid residue derived from diphthamide.

>  <Secondary ChEBI ID>  (4) 
CHEBI:14757
CHEBI:41889
CHEBI:64617
CHEBI:7994

>  <SMILES>  (4) 
C[N+](C)(C)[C@@H](CCc1nc(C[C@H](N-*)C(-*)=O)c[nH]1)C(N)=O

>  <Formulae>  (4) 
C13H22N5O2

>  <Charge>  (4) 
+1

>  <Mass>  (4) 
280.34550

>  <Monoisotopic Mass>  (4) 
280.17735

>  <Synonyms>  (4) 
2'-[3-carboxamido-3-(trimethylammonio)propyl]-L-histidine
2-[(3R)-3-carbamoyl-3-(trimethylammonio)propyl]-L-histidyl
Diphthamide
EF-2 diphthamide
Elongation factor 2 diphthamide
Peptide diphthamide
diphthamide residue
peptidyl-diphthamide
{3-[4-(2-AMINO-2-CARBOXY-ETHYL)-1H-IMIDAZOL-2-YL]-1-CARBAMOYL-PROPYL}-TRIMETHYL-AMMONIUM

>  <KEGG COMPOUND Database Links>  (4) 
C02872

>  <PDBeChem Database Links>  (4) 
DDE

>  <RESID Database Links>  (4) 
AA0040

>  <GeneOntology Database Links>  (4) 
GO:0017184
GO:0017182

>  <PubChem Database Links>  (4) 
SID: 8144946

>  <Rhea Database Links>  (4) 
RHEA:19753
RHEA:11820

>  <SABIO-RK Database Links>  (4) 
3807

>  <UniProt Database Links>  (4) 
P32324
Q6FPD9
Q5ZKI2
Q002B5
P0CN21
P0CN20
A4QN59
Q7L8W6
Q9CQ28
Q5M9F5
Q9USQ7
Q12429
Q55C80
Q9BTV6
Q0W085
Q6CS90
Q57907
Q9CR25
A7SKJ3
Q7S5C0
Q5RE82
O58832
Q568Y2
Q10206
Q6DE00
Q6CGE7
Q6BPC1
Q0VBY7
Q6P3W2
Q91ZF0
C3MYP9
O81769
A4FYP1
C3NHR8
C3NDY5
Q6BMF6
B0G132
Q5B2Q1
Q4I5M4
Q9BQC3
Q97TX8
Q754E7
Q6MY91
A9A6D8
A6VJP1
A3MU14
Q8U377
Q5E982
Q9CYU6
O74865
P38332
Q59NX9
Q6FXK9
Q9YDI2
O29866
Q8PUH9
O58456
B6YXP9
Q979Z8
Q6BN80
B9LV13
A3CWF9
A1RU15
B1YAU2
Q971V1
Q9HJT0
P32461
Q74Z32
Q4WPU8
Q1LZC9
Q21102
Q75JG8
Q5V2B7
B0R4W9
A3DLV7
C5A3K4
Q6FXS6
Q6VUC1
P0CN23
P0CN22
Q6BTW5
Q5BFG0
Q4HZI0
Q9HQK6
Q6LZN6
B8GIF8
C3N5D1
C4KGZ7
Q18JS3
Q5JFE7
Q75AZ9
Q4X0S7
Q3SYT1
Q9VGQ9
P0C0V4
Q8STR6
Q4I9U7
Q96FX2
Q9H2P9
A6UU49
Q8TR14
A4YHI8
P49958
Q59MG1
Q6FTG1
Q5ZHX9
P0CN19
P0CN18
Q6CMG4
Q4R312
Q8K0W9
Q7SC15
Q5R7N8
A7IA21
Q9UT33
Q4P8G2
Q6C0G3
Q3E840
Q6CIZ1
Q9CWQ0
Q467Z4
Q2NFJ8
Q567W6
Q6BPU5
Q54PW5
Q5AZJ7
Q8SUZ5
Q4IQ72
Q752D7
Q4WPF7
Q5AD49
Q6FWM1
A7SLX5
Q7S949
O27902
A0B879
Q9BZG8
Q6CLC9
Q3T7C9
Q5NCQ5
Q7SEK8
P0C0V5
Q4I7G0
Q6CUQ9
P40487
O74898
Q12XB4
Q2FQ45
A6US81
Q7SC98
O59713
Q4PA25
Q6GPQ5
Q6C0S8
Q6C1E0
P32469
Q757B6
Q4WN99
Q08DM2
Q09454
Q59SJ9
Q2HJF5
A2RV01
Q9UUG3
Q6C6T1
Q58670
Q3IS55
Q9UZ31
C3MPQ5
Q8TXC7
A2SQF6
Q8ZXR9

>  <Last Modified>  (4) 
27 Jul 2015

$$$$

     RDKit          2D

  6  6  0  0  0  0  0  0  0  0999 V2000
    0.7145   -0.4125    0.0000 C   0  0  0  0  0  0  0  0  0  0  0  0
    0.0000   -0.8250    0.0000 C   0  0  0  0  0  0  0  0  0  0  0  0
    0.7145    0.4125    0.0000 C   0  0  0  0  0  0  0  0  0  0  0  0
    0.0000    0.8250    0.0000 C   0  0  0  0  0  0  0  0  0  0  0  0
   -0.7145   -0.4125    0.0000 C   0  0  0  0  0  0  0  0  0  0  0  0
   -0.7145    0.4125    0.0000 C   0  0  0  0  0  0  0  0  0  0  0  0
  2  1  2  0
  3  1  1  0
  4  3  2  0
  5  2  1  0
  6  4  1  0
  5  6  2  0
M  END
>  <ChEBI ID>  (5) 
CHEBI:16716

>  <ChEBI Name>  (5) 
benzene

>  <Star>  (5) 
3

>  <Definition>  (5) 
A six-carbon aromatic annulene in which each carbon atom donates one of its two 2p electrons into a delocalised pi system. A toxic, flammable liquid byproduct of coal distillation, it is used as an industrial solvent. Benzene is a carcinogen that also damages bone marrow and the central nervous system.

>  <Secondary ChEBI ID>  (5) 
CHEBI:41187
CHEBI:3025
CHEBI:13876
CHEBI:22703

>  <InChI>  (5) 
InChI=1S/C6H6/c1-2-4-6-5-3-1/h1-6H

>  <SMILES>  (5) 
c1ccccc1

>  <InChIKey>  (5) 
UHOVQNZJYSORNB-UHFFFAOYSA-N

>  <Formulae>  (5) 
C6H6

>  <Charge>  (5) 
0

>  <Mass>  (5) 
78.11184

>  <Monoisotopic Mass>  (5) 
78.04695

>  <IUPAC Names>  (5) 
benzene

>  <Synonyms>  (5) 
BENZENE
Benzen
Benzene
Benzine
Benzol
Bicarburet of hydrogen
Coal naphtha
Mineral naphtha
Phene
Pyrobenzol
Pyrobenzole
[6]annulene
benzene
benzole
cyclohexatriene
phenyl hydride

>  <Beilstein Registry Numbers>  (5) 
969212

>  <CAS Registry Numbers>  (5) 
71-43-2

>  <Gmelin Registry Numbers>  (5) 
1671

>  <HMDB Database Links>  (5) 
HMDB0001505

>  <KEGG COMPOUND Database Links>  (5) 
C01407

>  <PDBeChem Database Links>  (5) 
BNZ

>  <PubMed citation Links>  (5) 
18407866
15468289
19228219
17373369
18072742
15935818
14677922
12857942
11993966
23534829
23222815
23088855
8124204
18409691
21325737
11684179
6353911
16161967
18836923

>  <Reaxys Registry Numbers>  (5) 
969212

>  <UM-BBD compID Links>  (5) 
c0142

>  <Wikipedia Database Links>  (5) 
Benzene

>  <ACToR Database Links>  (5) 
71-43-2
27271-55-2
174973-66-1
26181-88-4

>  <ArrayExpressAtlas Database Links>  (5) 
E-GEOD-18858

>  <BKMS-react Database Links>  (5) 
1750
121990
9107

>  <BRENDA Database Links>  (5) 
2.4.1.19
1.1.1.1
1.1.3.6
1.10.3.2
1.11.2.1
1.14.12.3
1.14.12.10
1.14.12.11
1.14.12.12
1.14.12.18
1.14.13.7
1.14.13.25
1.14.13.236
1.14.13.244
1.14.14.11
1.14.14.94
2.4.1.92
3.1.1.1
3.1.1.8
3.1.1.20
3.1.1.23
3.1.1.74
3.1.3.8
3.2.1.1
3.2.1.B1
3.2.1.4
3.2.1.78
3.2.1.116
3.3.2.9
3.4.21.79
3.5.1.99
4.1.1.28
4.1.1.53
4.1.2.13
4.2.1.1
4.3.1.24
4.99.1.2
5.6.2.2

>  <BRENDALigand Database Links>  (5) 
1750
121990
9107

>  <BindingDB Database Links>  (5) 
50167939

>  <ChEMBL Database Links>  (5) 
CHEMBL277500

>  <CompTox Database Links>  (5) 
DTXSID3039242

>  <EnzymePortal Database Links>  (5) 
P0C619
A5W4F1
P0C618
A5W4F2
Q07944
Q07945

>  <GeneOntology Database Links>  (5) 
GO:1900996
GO:1901423
GO:1900997
GO:0018910

>  <IEDB Database Links>  (5) 
116867

>  <IntEnz Database Links>  (5) 
EC 1.14.12.3

>  <MetaboLights Database Links>  (5) 
MTBLS700
MTBLS867
MTBLS8677
MTBLS1757
MTBLS4012
MTBLS5423
MTBLS3129
MTBLS2406

>  <NMRShiftDB Database Links>  (5) 
7901

>  <PDB Database Links>  (5) 
181l
1a7z
1cp4
1l83
1l84
1swi
1xxj
220l
223l
227l
2yky
2z9g
3dmx
3guj
3hh4
4i7j
4w52
5jwt
6sy7

>  <Patent Database Links>  (5) 
EP1113000
EP1090920
EP1099744
EP1104764
EP1110966
EP1114668
EP1122252
EP1122253
EP1122257
EP1123918
EP1123927
EP1123928
EP1125907
EP1125931
EP1132373
EP1134218
EP1136477
EP1142587
EP1142877
EP1148059
EP1151994
EP1157704
EP1157989
EP1167346
EP1178035
EP1178036
EP1178037
EP1179341
EP1180512
EP1180517
EP1182195
EP1182203
EP1186604
EP1188733
EP1188747
EP1209147
EP1201656
EP1201661
EP1203766
EP1211240
EP1211253
EP1217001
EP1219294
EP1219612
EP1219625
EP1227089
EP1229010
EP1229012
EP1233013
EP1238970
EP1238971
EP1254895
EP1254898
EP1256575
EP1256576
EP1258252
EP1258473
EP0908452
EP0894797
EP0902020
EP0906783
EP0908460
EP0911320
EP0911338
EP0915092
EP0916675
EP0926136
EP0926138
EP0928791
EP0930075
EP0933360
EP0934924
EP0936216
EP0949242
EP0949262
EP0949301
EP0955301
EP0958861
EP0966963
EP0967205
EP0974587
EP0987254
EP1281707
EP1264707
EP1277737
EP1277754
EP1283039
EP1283199
EP1285917
EP1293503
EP1295866
EP1300396
EP1302464
EP1310488
EP1318148
EP1327629
EP1327633
EP1331005
EP1340750
EP1342723
EP1354587
EP1357103
EP1357110
EP1357111
EP1361220
EP1362601
EP1367055
EP1369129
EP1371655
EP1375468
EP1375472
EP1384718
EP1389618
EP1394156
EP1403258
EP1408090
EP1422213
EP1422228
EP1424328
EP1424329
EP1002873
EP0990647
EP0990661
EP0999204
EP1008296
EP1020190
EP1020445
EP1020448
EP1020451
EP1022026
EP1024138
EP1028113
EP1035120
EP1043312
EP1046635
EP1048666
EP1052238
EP1052261
EP1057815
EP1063224
EP1067103
EP1067109
EP1067123
EP1067128
EP1069127
EP1074556
EP1078926
EP1081133
EP1081144
EP1081146
EP1082280
EP1082295
EP1439174
EP1426375
EP1428813
EP1428818
EP1433479
EP1439187
EP1443020
EP1443047
EP1445257
EP1445258
EP1449580
EP1454899
EP1460069
EP1460073
EP1466625
EP1466904
EP1468684
EP1468988
US2006084658
US2006074092
US2006079526
US2006079536
US2006089353
US2006089386
US2006094767
US2006094774
US2006100192
US2006100193
US2006100197
US2006100229
US2006100421
US2006100443
US2006105435
US2006106032
US2006106041
US2006106046
US2006106073
US2006106086
US2006111368
US2006122176
US2006122236
US2006122269
US2006128680
US2006128693
US2006128703
US2006128706
US2006128786
US2006134034
US2006135545
US2006135557
US2006142293
US2006142300
US2006142324
US2006142343
US2006142370
US2006142612
US2006148789
US2006148830
US2006148889
US2006148890
US2006148902
US2006149059
US2006154970
US2006160847
US2006160864
US2006160894
US2006162095
US2006166986
US2006167042
US2006178359
US2006183730
US2006183738
US2006188915
US2007244096
US2007232653
US2007232682
US2007243132
US2007244161
US2007248560
US2007248614
US2007249663
US2007254364
US2007254886
US2007254915
US2007258912
US2007270478
US2007276042
US2007276043
US2008038276
US2008039643
US2008045522
US2008064731
US2008085534
US2008090789
US2008096917
US2008132683
US2008161351
US2008176942
US2008188468
US2008200535
US2008200558
US2008207584
US2008207603
US2008221018
US2008227808
US2008227809
US2008234229
US2008234316
US2008234323
US2008234382
US2008234388
US2008242855
US2008247991
US2008249091
US2008255128
US2008255169
US2008261947
US2008261963
US2008269215
US2008269231
US2008269237
US2008269240
US2008269283
US2008275017
US2008275069
US2008275074
US2008275112
US2008280910
US2008280961
US2008287490
EP1950232
EP1953140
EP1956009
EP1958631
EP1961745
WO2005049614
WO2005049568
WO2005049586
WO2005049594
WO2005051929
WO2005051974
WO2005054201
WO2005054209
WO2005054210
WO2005054228
WO2005054253
WO2005054429
WO2005056536
WO2005058843
WO2005058861
WO2005063680
WO2005063717
WO2005063741
WO2005067922
WO2005068457
WO2005068458
WO2005070914
WO2005073234
WO2005074933
WO2005075426
WO2005075462
WO2005075477
WO2005077927
WO2005077957
WO2005079195
WO2005082879
WO2005085225
WO2005085227
WO2005087776
WO2005090343
WO2005091752
WO2005092886
WO2005092896
WO2005095330
WO2005095351
WO2005095370
WO2005095377
WO2005095424
WO2005100330
WO2005100335
WO2005101989
WO2005104663
WO2005105762
WO2005105802
WO2005107742
WO2005108338
EP1970373
EP1961753
EP1961754
EP1964836
EP1975162
EP1988076
EP1988079
WO2006047631
WO2006046914
WO2006046915
WO2006047196
WO2006050458
WO2006055321
WO2006057845
WO2006058699
WO2006059346
WO2006059347
WO2006064304
WO2006067584
WO2006069807
WO2006070325
WO2006071353
WO2006071354
WO2006071868
WO2006073963
WO2006074264
WO2006077168
WO2006077364
WO2006077365
WO2006077366
WO2006077367
WO2006078317
WO2006080025
WO2006080577
WO2006082597
WO2006083924
WO2006084186
WO2006085332
WO2006087732
WO2006089872
WO2006089927
WO2006090270
WO2006092032
WO2006092417
WO2006094763
WO2006095362
WO2006097341
WO2006097472
WO2006100226
WO2006107644
WO2006107753
WO2006109048
WO2006109323
WO2006110219
US2005165114
US2005171083
US2005171094
US2005176710
US2005182040
US2005182045
US2005182111
US2005182123
WO2008131932
WO2008132748
WO2008134354
WO2008135488
WO2008141140
WO2008141145
WO2008142528
WO2008144062
WO2008144266
WO2008144865
WO2008145172
WO2008146172
WO2008147635
WO2008147638
WO2008147639
WO2008149204
WO2008153289
WO2008154484
WO2008155613
WO2008156205
WO2008156443
EP1555264
GB2345486
WO2005016862
GB2224028
EP1626044
EP0979823
EP1167373
EP0774463
EP0778273
EP0780363
EP0780391
EP0781775
EP0784051
EP0787718
EP0787733
EP0791597
EP0791849
EP0796845
EP0805190
EP0807632
EP0812845
EP0818445
EP0818446
EP0828183
EP0837063
EP0854382
EP0855390
EP1468999
EP1471057
EP1475369
EP1475372
EP1477175
EP1477489
EP1477490
EP1484325
EP1484327
EP1486495
EP1488853
EP1489068
EP1491531
EP1500643
EP1500655
EP1506964
EP1508561
EP1514844
EP1516597
EP1527783
EP1533300
EP1535909
EP1541149
EP1541582
EP1541692
EP1544199
EP1547996
EP1550659
EP1550662
EP1550725
EP1553075
EP1555266
EP1555267
EP1560070
EP1574509
EP1577300
EP1577310
EP1577331
EP1582522
EP1582523
US2003013772
US2003018056
US2003022934
US2003028047
US2003032672
US2003032834
US2003044885
US2003065037
US2003068379
US2003069288
US2003096028
US2003096827
US2003096847
US2003096876
US2003100512
US2003108892
US2003111087
US2003114387
US2003114508
US2003147845
US2003149083
US2003149108
US2003153031
US2003153559
US2003153579
US2003153789
US2003158127
US2003165443
US2003166481
US2003166693
US2003195223
US2003203902
US2003213940
US2003236406
US2004002480
US2004002491
US2004002521
US2004006056
US2004019119
US2004023938
US2004023957
US2004030159
US2004034217
US2004048904
US2004049065
EP1995227
EP1995246
EP1997805
EP1997813
EP2000465
EP2003135
EP2006284
EP2006287
GB1474364
GB1492073
GB2014030
GB2020975
GB2021121
GB2194945
GB2208601
GB2211517
GB2212048
GB2212804
GB2216124
GB2225781
GB2227744
GB2228734
GB2230527
GB2234748
GB2249094
GB2262096
GB2285805
GB2286395
GB2297749
GB2337752
GB2355457
GB2369616
GB2386891
US2001001332
US2001031766
US2001039279
US2001041359
US2001046975
US2001056088
US2002016365
US2002032189
WO2006116007
WO2006110221
WO2006110520
WO2006110893
WO2006114676
US2005192292
US2005182138
US2005187238
US2005191643
US2005197362
US2005208534
US2005209166
US2005214249
US2005214810
US2005222118
US2005227240
US2005227335
US2005232812
US2005234035
US2005234053
US2005245527
US2005245734
US2005250814
US2005260126
US2005261327
US2005261334
US2005265961
US2005267137
US2005272699
US2005277665
US2005277773
US2005282862
US2005283007
US2005288263
US2005288271
US2006004012
US2006004037
US2006004203
US2006009446
US2006009490
US2006009532
US2006014734
US2006014739
US2006014809
US2006019951
US2006025417
US2006025434
US2006025461
US2006030713
US2006040970
US2006051846
US2006052361
US2006052374
US2006052403
US2006058301
US2006058396
US2006058554
US2006063767
US2006069093
US2006069137
US2006223830
US2006189653
US2006194859
US2006194869
US2006229303
US2006258657
US2006258687
US2006258722
US2006264434
US2006269958
US2006270721
US2006270724
US2006270733
US2006276465
US2006281747
US2006281789
US2006287329
US2006293543
US2007011824
US2007015943
US2007037979
US2007043002
US2007043035
US2007044250
US2007066617
US2007122506
US2007123572
US2007142427
US2007149577
US2007155813
US2007167442
US2007167444
US2007173498
US2007174977
US2007179163
US2007179181
US2007184013
US2007185101
US2007185116
US2007185123
US2007185176
US2007185177
US2007185216
US2007189998
US2007189999
US2007191293
US2007191318
US2007197510
US2007197594
US2007203143
US2007203154
US2007208036
US2007213316
US2007213397
US2007219141
US2007219182
US2007225296
EP1584373
EP1589002
EP1589089
EP1591440
EP1593673
EP1593680
EP1593681
EP1595867
EP1598049
EP1598067
EP1598344
EP1600440
EP1600443
EP1602374
US2008293749
US2008293137
US2008293685
US2008293701
US2008293764
WO2005000233
WO2005002293
WO2005002519
WO2005002523
WO2005003136
WO2005004810
WO2005005402
WO2005005956
WO2005010028
WO2005011686
WO2005012579
WO2005014549
WO2005014568
WO2005016882
WO2005016908
WO2005019204
WO2005019211
WO2005019226
WO2005021506
WO2005021522
WO2005021549
WO2005023762
WO2005025504
WO2005026095
WO2005028409
WO2005030140
WO2005030695
WO2005030711
WO2005030772
WO2005030777
WO2005032488
WO2005035517
WO2005035520
WO2005037271
WO2005037821
WO2005037823
WO2005037826
WO2005040104
WO2005040123
WO2005040134
WO2005040145
WO2005040152
WO2005041664
WO2005044266
WO2005044267
WO2005047249
WO2005049567
US2004077725
US2004054204
US2004059120
US2004071654
US2004077726
US2004077867
US2004082585
US2004087650
US2004092557
WO2006120639
WO2006117653
WO2006117762
WO2006120178
WO2006122072
WO2006125592
WO2006127945
WO2006131465
WO2006131782
WO2006132625
WO2006133332
WO2006133397
WO2006135640
WO2006137769
WO2007087220
WO2007089034
WO2007091106
WO2007091107
WO2007092213
WO2007094886
WO2007097593
WO2007098090
WO2007099117
WO2007100851
WO2007106063
WO2007106597
WO2007111514
WO2007113256
WO2007113276
WO2007113650
WO2007114762
WO2007115232
WO2007117559
WO2007120485
WO2007121352
WO2007121482
WO2007123718
WO2007123892
WO2007124494
WO2007125325
WO2007127635
WO2007135463
WO2007136439
WO2008107911
WO2008108639
WO2008111794
WO2008114275
WO2008117079
WO2008117305
WO2008125207
WO2008130970
WO2008131000
US2004092598
US2004110743
US2004122040
US2004127487
US2004138211
US2004138271
US2004138502
US2004162341
US2004171881
US2004191796
US2004198727
US2004198830
US2004204596
US2004204617
US2004209925
US2004220237
US2004220425
US2004229869
US2004235023
US2004235961
US2004241237
EP1767221
EP1770089
EP1772141
EP1777225
EP1782834
EP1785134
EP1785421
EP1790637
EP1795529
EP1797871
EP1798226
EP1803802
EP1813620
EP1818336
EP1826208
EP1847533
EP1849465
EP1849773
EP1857817
EP1864976
EP1872942
EP1876179
EP1878724
EP1886994
EP1889622
EP1889839
EP1892238
EP1892240
EP1897866
EP1903039
EP1903068
EP1914235
EP1914256
EP1916251
EP1918293
EP1921062
EP1923387
EP1923388
EP1932833
EP1932836
EP1939175
EP1939199
EP1941946
EP1944308
EP1604975
EP1612208
EP1612211
EP1614672
EP1616957
EP1623970
EP1630152
EP1632231
EP1632291
EP1632477
EP1632488
EP1637520
EP1637531
EP1640367
EP1640369
EP1642594
EP1650194
EP1652892
EP1659115
EP1661879
EP1661881
EP1661889
EP1661898
EP1666455
EP1666468
EP1666483
EP1666970
EP1672961
EP1674468
EP1679308
EP1679309
EP1683797
EP1686123
EP1695960
EP1695968
EP1695971
EP1700848
EP1704856
EP1705167
EP1712227
EP1717230
EP1719771
EP1719773
EP1724264
EP1724272
EP1731512
EP1731522
EP1736157
EP1741693
EP1741701
EP1742052
US2004261190
US2004248919
US2004258782
US2004259875
US2004267011
US2005004132
US2005014795
US2005014810
US2005014812
US2005014826
US2005020566
US2005026940
US2005026978
US2005032147
US2005032771
US2005032787
US2005032788
US2005032865
US2005033070
US2005038035
US2005038060
US2005043351
US2005049245
US2005049275
US2005049286
US2005049295
US2005049405
US2005054535
US2005054851
US2005059653
WO2006036880
WO2006036949
WO2006038001
WO2006039212
WO2006041830
WO2006042150
WO2006043075
WO2006043090
WO2006044449
WO2006044504
WO2006046043
EP1752452
EP1752455
EP1757290
EP1757582
EP1757594
EP1760071
EP1760079
US2005070597
US2005059663
US2005059665
US2005070485
US2005075342
US2005080067
US2005080072
US2005080206
US2005085424
US2005085476
US2005085504
US2005085515
US2005085555
US2005090522
US2005096331
US2005096359
US2005096363
US2005096467
US2005097813
US2005101627
US2005107357
US2005107426
US2005107432
US2005107454
US2005113399
US2005113404
US2005113420
US2005119304
US2005124619
US2005124642
US2005124682
US2005130282
US2005131002
US2005131019
US2005136007
US2005137246
US2005143385
US2005148570
US2005148572
US2005148583
US2005148608
US2005148651
US2005154199
US2005159484
US2005165019
US2002082266
US2002035114
US2002037333
US2002058713
US2002086902
US2002099099
US2002102612
US2002103168
US2002107234
US2002120007
US2002156113
US2002165206
US2002193443
US2003008884
EP0856515
EP0860432
EP0867434
EP0867753
EP0875506
EP0882710
EP0882715
EP0885871
EP0885894
EP0887340
EP0889037
EP0894792
WO2005108347
WO2005110980
WO2005110998
WO2005111050
WO2005112644
WO2005112933
WO2005113533
WO2005115361
WO2005115977
WO2005115984
WO2005118550
WO2005120186
WO2005121143
WO2005120498
WO2005121115
WO2005121129
WO2005123684
WO2006000314
WO2006001619
WO2006001752
WO2006002099
WO2006005980
WO2006008251
WO2006008562
WO2006010423
WO2006010775
WO2006010965
WO2006016376
WO2006017353
WO2006018708
WO2006019202
WO2006020156
WO2006021801
WO2006022825
WO2006024034
WO2006025859
WO2006028962
WO2006029209
WO2006029515
WO2006030299
WO2006030977
WO2006031782
WO2006032879
WO2006035459
WO2006035997

>  <PubChem Database Links>  (5) 
CID: 241
SID: 8144665

>  <Reactome Database Links>  (5) 
R-HSA-76416

>  <Rhea Database Links>  (5) 
RHEA:13813

>  <SABIO-RK Database Links>  (5) 
12437

>  <SureChEMBL Database Links>  (5) 
SCHEMBL194

>  <UniProt Database Links>  (5) 
A5W4F2
P0C618
A5W4F1
P0C619
P08086
P08087
P08088
Q6F4M7
Q9WXE6
P42535
Q8KIY1
E0X9C7
Q5PXQ6
P32021
Q04828
P52895
Q9TV68
Q7JK39
Q9TV69
Q07946
Q07947
Q07944
Q07945
Q95JH4

>  <Last Modified>  (5) 
24 May 2023

$$$$
ChEBI
     RDKit          2D

 10  9  0  0  1  0  0  0  0  0999 V2000
    6.6714   -3.3401    0.0000 C   0  0  0  0  0  0  0  0  0  0  0  0
    5.9622   -3.7617    0.0000 C   0  0  0  0  0  0  0  0  0  0  0  0
    5.2422   -3.3520    0.0000 C   0  0  0  0  0  0  0  0  0  0  0  0
    4.5330   -3.7735    0.0000 C   0  0  0  0  0  0  0  0  0  0  0  0
    3.8130   -3.3639    0.0000 C   0  0  0  0  0  0  0  0  0  0  0  0
    7.3913   -3.7497    0.0000 O   0  0  0  0  0  0  0  0  0  0  0  0
    5.9622   -4.5867    0.0000 O   0  0  0  0  0  0  0  0  0  0  0  0
    5.2422   -2.5270    0.0000 O   0  0  0  0  0  0  0  0  0  0  0  0
    4.5330   -4.5985    0.0000 O   0  0  0  0  0  0  0  0  0  0  0  0
    3.1038   -3.7854    0.0000 O   0  0  0  0  0  0  0  0  0  0  0  0
  6  1  2  0
  2  1  1  0
  2  7  1  1
  3  2  1  0
  3  8  1  6
  4  3  1  0
  4  9  1  6
  5  4  1  0
 10  5  1  0
M  END
>  <ChEBI ID>  (6) 
CHEBI:16789

>  <ChEBI Name>  (6) 
aldehydo-D-lyxose

>  <Star>  (6) 
3

>  <Definition>  (6) 
A D-lyxose in open-chain aldehyde form.

>  <Secondary ChEBI ID>  (6) 
CHEBI:12995
CHEBI:4204
CHEBI:57898
CHEBI:21047

>  <SMILES>  (6) 
OC[C@@H](O)[C@H](O)[C@H](O)C=O

>  <InChIKey>  (6) 
PYMYPHUHKUWMLA-UOWFLXDJSA-N

>  <InChI>  (6) 
InChI=1S/C5H10O5/c6-1-3(8)5(10)4(9)2-7/h1,3-5,7-10H,2H2/t3-,4-,5-/m1/s1

>  <Formulae>  (6) 
C5H10O5

>  <Charge>  (6) 
0

>  <Mass>  (6) 
150.12990

>  <Monoisotopic Mass>  (6) 
150.05282

>  <IUPAC Names>  (6) 
D-lyxo-pentose
D-lyxose

>  <Synonyms>  (6) 
D-Lyx
D-Lyxose
D-lyxose
WURCS=2.0/1,1,0/[o112h]/1/

>  <CAS Registry Numbers>  (6) 
1114-34-7

>  <GlyGen Database Links>  (6) 
G88438YV

>  <GlyTouCan Database Links>  (6) 
G88438YV

>  <KEGG COMPOUND Database Links>  (6) 
C00476

>  <ACToR Database Links>  (6) 
65-42-9

>  <EnzymePortal Database Links>  (6) 
A3E7Z6

>  <IntEnz Database Links>  (6) 
EC 5.3.1.15

>  <MetaboLights Database Links>  (6) 
MTBLS1693

>  <NMRShiftDB Database Links>  (6) 
60034006

>  <Patent Database Links>  (6) 
EP1887017
US2007248556
US2007265210
EP1870102
EP1894577
EP1923060
US2002016300
US2003017995
US2004082807
US2004097602
US2005037396
US2005171028
US2005267169
US2005277599
US2006079713
US2006280688
US2007226916
US2008280994
WO2005020881
WO2007112574

>  <PubChem Database Links>  (6) 
CID: 65550
SID: 8143647

>  <Rhea Database Links>  (6) 
RHEA:14201

>  <SABIO-RK Database Links>  (6) 
13766
1955
7818
7781
7242
7239
11179
1615
12688
793

>  <SureChEMBL Database Links>  (6) 
SCHEMBL36425

>  <UniProt Database Links>  (6) 
P96578
A3E7Z6

>  <Last Modified>  (6) 
07 Apr 2021

$$$$

     RDKit          2D

 10  9  0  0  1  0  0  0  0  0999 V2000
   10.6316  -21.2448    0.0000 C   0  0  0  0  0  0  0  0  0  0  0  0
   10.6316  -20.2448    0.0000 O   0  0  0  0  0  0  0  0  0  0  0  0
    9.7655  -21.7448    0.0000 C   0  0  0  0  0  0  0  0  0  0  0  0
    9.7655  -22.7448    0.0000 N   0  0  0  0  0  0  0  0  0  0  0  0
    8.8996  -21.2448    0.0000 C   0  0  0  0  0  0  0  0  0  0  0  0
    8.0335  -21.7448    0.0000 C   0  0  0  0  0  0  0  0  0  0  0  0
    7.1675  -21.2448    0.0000 O   0  0  0  0  0  0  0  0  0  0  0  0
    8.0335  -22.7448    0.0000 O   0  0  0  0  0  0  0  0  0  0  0  0
   11.4977  -21.7447    0.0000 O   0  0  0  0  0  0  0  0  0  0  0  0
    8.8996  -20.2448    0.0000 O   0  0  0  0  0  0  0  0  0  0  0  0
  1  9  1  0
  2  1  2  0
  3  1  1  0
  3  4  1  1
  5  3  1  0
  6  5  1  0
  7  6  1  0
  8  6  2  0
  5 10  1  0
V    9 *
M  END
>  <ChEBI ID>  (7) 
CHEBI:17427

>  <ChEBI Name>  (7) 
3-hydroxy-L-aspartate residue

>  <Star>  (7) 
3

>  <Definition>  (7) 
An anionic amino-acid residue resulting from the deprotonation of the carboxy group of a 3-hydroxy-L-aspartic acid residue.

>  <Secondary ChEBI ID>  (7) 
CHEBI:14754
CHEBI:75591
CHEBI:7991

>  <SMILES>  (7) 
C(*)(=O)[C@@H](N*)C(C([O-])=O)O

>  <Formulae>  (7) 
C4H4NO4

>  <Charge>  (7) 
-1

>  <Mass>  (7) 
130.079

>  <Monoisotopic Mass>  (7) 
130.01403

>  <Synonyms>  (7) 
(2S)-3-hydroxyaspartate residue
3-hydroxy-L-aspartate residue
Peptide 3-hydroxy-L-aspartate

>  <KEGG COMPOUND Database Links>  (7) 
C03957

>  <MetaCyc Database Links>  (7) 
Peptide-3-hydroxy-L-Aspartates

>  <EnzymePortal Database Links>  (7) 
Q8BSY0
Q12797
Q28056

>  <PubChem Database Links>  (7) 
SID: 375739122
SID: 164175073

>  <Rhea Database Links>  (7) 
RHEA:11508

>  <UniProt Database Links>  (7) 
Q28056
Q12797
Q8BSY0

>  <Last Modified>  (7) 
31 Aug 2018

$$$$

     RDKit          2D

 10  9  0  0  1  0  0  0  0  0999 V2000
    1.4289    0.2357    0.0000 C   0  0  0  0  0  0  0  0  0  0  0  0
    0.7145   -0.1768    0.0000 C   0  0  0  0  0  0  0  0  0  0  0  0
   -1.4289    0.2357    0.0000 S   0  0  0  0  0  0  0  0  0  0  0  0
    0.0000    0.2357    0.0000 C   0  0  0  0  0  0  0  0  0  0  0  0
   -0.7145   -0.1768    0.0000 C   0  0  0  0  0  0  0  0  0  0  0  0
   -2.1434   -0.1768    0.0000 C   0  0  0  0  0  0  0  0  0  0  0  0
    1.4289    1.0607    0.0000 O   0  0  0  0  0  0  0  0  0  0  0  0
   -1.4289    1.0607    0.0000 O   0  0  0  0  0  0  0  0  0  0  0  0
    0.7145   -1.0018    0.0000 N   0  0  0  0  0  0  0  0  0  0  0  0
    2.1434   -0.1768    0.0000 O   0  0  0  0  0  0  0  0  0  0  0  0
 10  1  1  0
  1  7  2  0
  1  2  1  0
  2  9  1  1
  3  8  2  0
  2  4  1  0
  4  5  1  0
  3  5  1  0
  3  6  1  1
V   10 *
M  END
>  <ChEBI ID>  (8) 
CHEBI:45764

>  <ChEBI Name>  (8) 
L-methionine (R)-S-oxide residue

>  <Star>  (8) 
3

>  <Secondary ChEBI ID>  (8) 
CHEBI:45761

>  <SMILES>  (8) 
C(*)(=O)[C@@H](N*)CC[S@](=O)C

>  <Formulae>  (8) 
C5H9NO2S

>  <Charge>  (8) 
0

>  <Mass>  (8) 
147.19650

>  <Monoisotopic Mass>  (8) 
147.03540

>  <IUPAC Names>  (8) 
(2S)-2-amino-4-[(R)-methylsulfinyl]butanoic acid residue

>  <Synonyms>  (8) 
L-methionine (R)-S-oxide residue
METHIONINE SULFOXIDE

>  <PDBeChem Database Links>  (8) 
SME

>  <EnzymePortal Database Links>  (8) 
Q2YY44
A7X2A9
A6U1P3
Q2FH15
P0A088
A5ISV4
A6QGX4
P65451
P99065
Q6GGY4
Q6G9D8
A8Z402
P0A087
B9DNY9
Q5HPB4
Q8CSK6
Q4L6D3
Q49XN4
Q3K1F5
Q8E5Q9
Q8E026
C0M8H8
Q62JM6
A1V4U8
Q3JRF0
Q63V23
Q39FG2
Q2SWN9
A4JEZ1
B8GY23
Q9A6B1
B3PK10
Q1QXV3
Q97IU0
Q9ZNJ9
Q0TPZ6
Q8XJZ6
Q0SSL4
Q47EU6
Q9RUK6
Q72EK2
A7ZMP8
B7USF8
B7MAY9
B7L6Q3
P0A748
B5YQ71
B7NSZ8
B7MVQ9
B7M1J2
C4ZZD4
B1XGN8
A8A0X0
Q0TH50
P0A747
B1IPF3
P0A746
B7N5B4
B6IBJ9
B1LDV3
P0DM32
E6ESW1
Q6D4P7
B2VJ36
B8GMG5
C5CNS9
A5F6R2
Q9KQK0
C3LNU9
Q87MS5
Q8D849
Q7MMC4
B2I8Y4
Q9PF29
Q87AJ9
A1JQG8
A7FI81
Q1C7U0
B2K3R4
Q8ZEK7
A9R9C4
Q1CJ76
A4TJB4
Q66AP6
B1JLG2
P25566
A2SGN7
O26807
P47686
P75129
Q9CMB1
C6DGV8
Q7N400
A1VNB7
Q12AE4
Q48FR2
A6V3R3
B7UUZ9
Q02NZ0
Q9I016
Q1ID16
Q4K8U5
C3K735
A4XVB1
A5W756
Q3K935
B0KUQ0
Q88LQ6
B1J4W5
Q885Q1
Q4ZQC6
Q8XYL1
Q21LK2
B5F860
A9MFH4
B5FJF9
B4TGC8
B4T3Y1
A9N292
B4TUA8
P65450
P65449
A8GFD8
Q321R4
Q32GC7
Q0T4Y5
Q83L66
Q3Z2B6
Q99ZV6
P0DC42
Q5XCD0
Q8P172
P0DC43
C0MDV8
A5GQT3
C5BR54
Q8DJK9
Q3SJU1
B4RUW0
B0VC45
Q8UGX7
Q0A706
C1DRM1
A7Z5S1
Q9KCX2
Q65ID2
A8FEA3
Q5WH73
P54155
Q89EM9
P65447
P65448
B1YRN6
Q1BH71
B1JTT6
A0K833
B4EBK9
Q0BEH0
A9AJS6
A2SBI6
B7LQ21
Q2SJP9
A4G5V5
B5XS71
A6T7R0
Q9CJ17
A2RHS0
Q032Q9
Q88W33
Q1WVT3
Q6ADJ8
Q72NN2
Q8F7W8
Q92AE9
C1KWF8
Q71YF7
B8DDP3
Q8Y641
A0AJW4
B1HZH4
Q46EH1
Q8PWF5
P0A3Q9
P0A3R0
P65443
P65444
Q9AL99
Q93KF3
P86890
P45213
Q9ZMK8
O25011
P14930
Q9JWM8
Q9K1N8
Q9LAM9
Q99YT1
P0DC40
Q5XAX5
Q8P046
P0DC41
O83641
Q9KLX6
Q9C8M2
Q0DC89
Q92RA4
Q9C5C8
Q92Y46
Q9M0Z6
Q6AUK5
Q9M0Z5
Q9ZS91
Q10L32
Q8GWF4
Q8VY86
O49707
Q84JT6
B0BYW4
Q6FAL8
B7H3X2
B7I415
B2HYT2
B0VR86
A3M4Q3

>  <PubChem Database Links>  (8) 
SID: 49693444

>  <Rhea Database Links>  (8) 
RHEA:51308
RHEA:51296
RHEA:24722
RHEA:24164
RHEA:49676

>  <UniProt Database Links>  (8) 
Q7RTP6
Q8CJ19
Q86BA1
F1MH07
E7F9T0
Q8TDZ2
Q8VDP3
D3ZBP4
F1MF74
O94851
Q8BML1
D4A1F2
F6QZ15
G3MWR8
O34974
P0A3Q9
P0A3R0
P65443
P65444
Q802G6
P0A081
P0A082
Q5VPG8
Q9SL43
Q9KLX6
B7H0P7
C0RMK6
A9MCZ5
Q0SPW9
Q899M3
Q0T9G6
A8A7X5
Q38XB4
Q6AG94
Q9D6Y7
O26635
A6Q418
Q3SU08
Q1Q8I3
Q4FQB0
Q8ZK71
Q09859
Q1JI75
Q1JN29
Q4UR77
B0RUE7
Q0A706
A1E952
Q5R869
Q8UGX7
Q8XJZ6
Q0TPZ6
Q0SSL4
Q9CJ17
A6T7R0
A2RHS0
A4XVB1
C3K735
P99065
P65451
Q6GGY4
Q6G9J8
Q6GH44
Q9AL99
Q93KF3
B2I399
B7I4T7
Q8YDE7
A5VVX1
Q8FLU6
Q6NEL2
Q8FAG4
B1ISY2
Q055M2
Q04PP8
B3PND9
P0A5L1
Q5YUS0
A6WYH5
Q8Y1C6
A5WC53
A8G8X6
B2TZL3
Q48UX4
A2RG28
Q8VS50
Q8PCA6
B4RUW0
Q52KJ8
Q92RA4
C1DRM1
Q9RUK6
Q47EU6
Q032Q9
Q88W33
Q3K935
A5W756
A8Z402
Q6G9D8
P0A087
P0A083
P86890
B0VL72
A9WW77
A4QHY3
P0A744
A1KEV7
Q93S39
Q923M1
Q03W54
Q31TF9
P0DC39
Q2NZR7
Q9C5C8
Q6NW52
Q9KCX2
A7Z5S1
Q65ID2
A7ZMP8
Q72EK2
Q6ADJ8
Q1WVT3
Q72NN2
Q88LQ6
B0KUQ0
B9DNY9
P72622
Q9LY15
P45213
A3M1W6
B0V4P7
A8FL58
Q8FUZ0
Q8NLL5
C4LG69
B6I2D2
B7NGF6
Q92AE8
C1KWF9
P47648
C1AJG2
Q9CN40
Q6D151
Q2RRT3
B6IS04
Q328B8
Q0SXG5
C0MCD1
B5XK66
B2SQI9
B2I4P8
Q5WH73
Q9Y3D2
Q78J03
A8FEA3
P54155
B7MAY9
B7USF8
Q8F7W8
Q92AE9
Q885Q1
B1J4W5
Q9A9E9
Q9ZMK8
C1F1B8
A7H4H5
A7MM56
Q9APY4
B1LRA3
A4W5V5
B8DDP2
Q71YF6
A4T413
A1AWS4
Q21JK7
P0A745
C6DDM6
Q3YUC8
B9DRF3
B0U2B7
Q9PC45
Q92Y46
Q4FZX5
Q89EM9
P65447
B7L6Q3
P0A748
C1KWF8
Q71YF7
Q8XYL1
Q4ZQC6
Q9CE42
Q8YWD8
O25011
Q7D255
A6TUE9
A1VYZ7
Q9PHN0
B7K079
B2VHZ5
Q8Y640
Q9CCZ3
B8ZTJ5
Q4FP80
Q7MYW1
B5F3D4
P54153
Q97Y45
Q4J9L3
Q87D27
Q9M0Z6
Q8IXL7
B1YRN6
P65448
B5YQ71
B7NSZ8
Q8Y641
B8DDP3
A0AJW4
B5F860
Q21LK2
P14930
A1R7D2
Q98DV6
Q5HVD4
Q7NVL7
Q9ZEQ8
Q9RTB6
B7LMP0
P54152
Q2W5W8
A0AJW5
B2HLR5
Q73U14
Q6L2S4
Q6LV65
A8M3K6
A9MEZ2
Q746G0
Q53W34
P40029
A1JIU0
Q6AUK5
Q5HG58
Q8BU85
B1JTT6
Q1BH71
B7MVQ9
B7M1J2
Q46EH1
B1HZH4
Q8PWF5
B5FJF9
A9MFH4
Q92LI5
Q7UJI2
Q9JWM8
A0JXQ4
B8HA70
A5CQY7
Q551H3
A8L177
Q0ATD8
Q8EVK2
A4SWL6
Q57GH3
Q8E434
Q3K013
Q9AJF7
A7FMV2
Q9M0Z5
Q5R930
B4EBK9
A0K833
C4ZZD4
B1XGN8
A2SGN7
B4T3Y1
B4TGC8
P0A086
Q9K1N8
C1DGW5
A8IPQ8
B0RBB1
Q97MV3
A7ZV98
P08761
Q39Z11
Q747V4
Q12TP4
Q8TQV6
P75188
Q98PE5
B7V3B1
Q48CJ2
B5FSB9
B5R0T7
Q82I51
Q8DYH1
Q119G2
B1AIS8
B2K2M6
Q1CBX8
Q9ZS91
A9AJS6
Q0BEH0
A8A0X0
P47686
O26807
P75129
B4TUA8
A9N292
Q7XUP7
P65445
P65446
Q9LAM9
A7Z5S2
Q8DJK9
A7FUX9
Q0BPD5
Q602T2
B7UQN3
A3Q7V7
Q02EZ9
B5R9G7
Q9EWF7
Q9PQK2
Q10L32
Q8ZB94
Q8GWF4
Q62JM6
A2SBI6
P0A747
Q0TH50
Q6D4P7
Q9CMB1
P65450
P65449
Q8CSK6
Q5HPB4
Q4L6D3
Q7XUP6
Q9FKF7
Q6GGY3
Q6G9D7
Q9KAN8
Q65ID1
C3KXI0
Q99YT1
A5I348
B7MLN1
B7LCT1
Q9HQG0
B0R518
Q2FQ35
A4FYX5
Q1B1N8
A1UNG1
Q9HUF1
Q1I3L0
B4T3H1
B4TFF2
C0MBS9
B4U465
A5CWI5
B5ZB99
A9R574
Q1CEI4
Q8VY86
O49707
Q3JRF0
A1V4U8
P0A746
B1IPF3
Q7N400
C6DGV8
A8GFD8
Q321R4
Q3K1F5
Q49XN4
Q8E5Q9
B8GMG5
Q3SJU1
A1JQG8
Q87AJ9
A7FI81
Q9CFC8
Q9A9I6
P0A085
P0DC40
A8FEA4
C1FPF1
Q8XCG3
B5Z3H5
Q7VI69
Q18J40
A9AB97
A6VFD6
O69761
Q5PJ81
A5TYL2
A9N540
B1W2P8
A5F587
A4TRL2
Q66F89
Q84JT6
B0BYW4
Q39FG2
Q63V23
B6IBJ9
B7N5B4
Q12AE4
A1VNB7
Q32GC7
Q0T4Y5
C0M8H8
Q8E026
Q99ZV6
A5F6R2
C5CNS9
Q1C7U0
B2K3R4
Q8YXZ4
P72800
Q9LY14
Q5XAX5
P54154
P54149
A7GEN6
B1IMT7
B7NUD2
Q9UJ68
Q8PUD6
P9WJM5
P9WJM4
A4XPS6
B0KJ25
C0Q6H8
Q8DSY4
Q9A149
C3LRL2
Q9KP30
B1JML1
Q6FAL8
B7H3X2
A4JEZ1
Q2SWN9
P0DM32
B1LDV3
Q48FR2
A6V3R3
Q83L66
Q3Z2B6
P0DC42
Q5XCD0
C3LNU9
Q9KQK0
Q8ZEK7
A9R9C4
Q92SY7
Q98JV5
Q92Y45
Q8P046
P0DC41
B1KU02
Q0TM63
B7MTA1
P54151
B7M9I1
B5Y2Y3
A5VKT1
A3CUG3
Q6LYY1
A1TH24
A0PWH2
Q88QZ8
B1JE82
B4TT49
B5BKM8
P0DC38
Q8DE84
Q87SW6
Q9C8M2
B7I415
B2HYT2
Q9A6B1
B8GY23
B2VJ36
E6ESW1
B7LQ21
B7UUZ9
Q02NZ0
A7X2A9
A6U1P3
P0DC43
Q8P172
C0MDV8
Q8D849
Q87MS5
Q1CJ76
A4TJB4
Q7UJK0
P54150
O83641
B2SC53
Q2YJM1
Q8XH97
C4ZR95
Q1WU33
B8IJD1
Q3IUS0
Q88AI5
Q8Z150
Q5XDH1
Q8P272
Q8PNY8
B0VR86
Q3MHL9
Q9NZV6
A3M4Q3
B3PK10
Q1QXV3
Q2SJP9
Q9I016
Q1ID16
P0A088
Q2FH15
A5ISV4
C5BR54
A5GQT3
B2I8Y4
Q7MMC4
Q66AP6
P0A084
Q336R9
Q576P8
A9KPX7
B1XDW8
Q9SEC2
B0UCG5
B9LA36
Q4ZM24
A4X3E5
Q1JD56
Q3BX45
Q9JLC3
Q0DC89
B0VC45
Q97IU0
Q9ZNJ9
B5XS71
A4G5V5
Q4K8U5
Q2YY44
A6QGX4
Q9PF29
B1JLG2
P76270
P49055
P68139
P53479
P68133
P68134
P68264
P53478
P10981
P53505
P83967
P83968
P53506
P62739
P08023
P62736
P41339
Q98972
P68137
Q5R9Q5
P68136
P62737
P62740
P62738
Q7ZVI7
P68142
P53483
P41341
Q7ZVF9
P53485
P53486
Q562R1
Q8BFZ3
Q9BYX7
Q0PGG4
P60712
P84336
O18840
Q71FK5
P84856
P49871
O16808
Q11212
P60706
Q76N69
P48975
P83751
P83750
P60708
P60709
Q4R561
Q711N9
P60710
P68143
O93400
Q6NVA9
Q3ZC07
P68034
P68032
P79818
Q5R1X3
Q6QAQ1
Q5R6G0
P29751
P60711
O42161
P60713
Q91ZK5
Q4L0Y2
P60707
P15475
P68033
P68035
P53480
P04751
Q6P640
P49128
P18600
P83969
P07836
P63256
P63258
Q5ZMQ2
P63261
P63260
Q5JAK2
P10987
P63259
Q8JJB8
P63257
A2BDB0
Q6P378
P18601
P45885
P07837
P02572
P10995
P20399
Q25010
P84184
P45886
Q5E9B5
P63270
P63267
P68140
P53482
Q90X97
P68138
P04829
P53501
P41340
P04752
P63268
P63269
Q6P8G3
P18603
P84183
P02574
P84185
P45887
P58916
A3N3C8
B3GZ85
B0BT06
P58770
A6VQE0
B8J9Q0
B4UGL0
P0A4R0
P0A4R1
Q2IGN2
Q62G98
Q63Q46
Q9PIC3
P36088
P0A182
P09936
P25566
P76112
Q9YGP1
A7MNQ9
Q9RRF6
B5YSJ7
A7ZN92
B7USY1
B7MCM4
B7L8Y8
Q8XB74
Q9A4T2
B0SVB3
Q7NZY0
O32169
O32168
O32167
Q9SGS4
Q8ZAW9
C4ZQP1
B2VGX7
B4TX85
P67348
Q665F0
A8A1H0
B7LRM8
Q8XV50
B3PWV0
Q2K9I8
Q92QE7
P67347
Q5FQ05
C3MB06
A8GK68
Q7VKI8
Q5LNE0
B5F7N7
B2TWL4
Q32HK5
A9MNV7
Q3Z0L8
A1ACB6
Q0I4C9
B0UUL6
Q57J91
Q8FGI7
Q2W2Q1
B5FIV5
B5R1C0
B5REX5
B1IZU1
Q60AK7
B4TJV1
Q7MR39
P76342
B4SUN2
Q9CN98
B7NRB1
Q6DAI9
C6DIK7
Q9HVA4
Q5PJV7
Q8PLY8
B7MWF7
B7NBW2
A9N876
B7M3A9
B6I116
B1LQN8
Q88DZ2
B5BGT1
Q8PA98
Q1RAH1
Q888N2
F1QH17
F1QWK4
P18656
P02653
P09813
P0DM95
Q8MIQ5
P0DJD2
P04638
P34928
P02647
P68292
Q9Z2L4
Q9Z2R5
D2HC77
P0DMA6
P15497
P02648
G3QY98
G5BQH5
Q00623
P19035
P12279
P33622
P06759
P18648
P0DMC0
P0DMA8
P0DM91
P0DM92
P0DJG0
P68293
P0DMA9
P18649
P0DKW6
Q03247
P0DKW7
P23529
P0DKU9
Q9GLM8
P02649
Q9GLM6
P10517
P05770
P0DJG1
P09809
P04639
P0DMC1
Q28502
P08226
Q9GJU3
P0DKY2
P18650
Q9GLM7
O18759
P0DMB0
P18287
P02650
P0DKW8
Q28995
Q7M2U8
Q9GLC0
E2RAK7
P0DJG2
P02652
Q7M2U7
P18775
P0DKQ7
P83376

>  <Last Modified>  (8) 
26 Feb 2010

$$$$

     RDKit          2D

 11 10  0  0  1  0  0  0  0  0999 V2000
    0.0000   -0.8250    0.0000 C   0  0  0  0  0  0  0  0  0  0  0  0
    0.7145   -0.4125    0.0000 N   0  0  0  0  0  0  0  0  0  0  0  0
    0.7145    0.4125    0.0000 C   0  0  0  0  0  0  0  0  0  0  0  0
    0.0000    0.8250    0.0000 C   0  0  0  0  0  0  0  0  0  0  0  0
   -0.7145    0.4125    0.0000 C   0  0  0  0  0  0  0  0  0  0  0  0
    1.4289    0.8250    0.0000 C   0  0  0  0  0  0  0  0  0  0  0  0
    1.4289    1.6499    0.0000 O   0  0  0  0  0  0  0  0  0  0  0  0
   -1.4289    0.8249    0.0000 S   0  0  0  0  0  0  0  0  0  0  0  0
   -2.1434    0.4124    0.0000 C   0  0  0  0  0  0  0  0  0  0  0  0
    2.1434    0.4125    0.0000 O   0  0  0  0  0  0  0  0  0  0  0  0
    0.0000   -1.6500    0.0000 O   0  0  0  0  0  0  0  0  0  0  0  0
  1 11  2  0
  2  1  1  0
  3  2  1  0
  3  6  1  0
  3  4  1  1
  4  5  1  0
  5  8  1  0
  6  7  2  0
  6 10  1  0
  8  9  1  0
V   10 *
M  END
>  <ChEBI ID>  (9) 
CHEBI:49298

>  <ChEBI Name>  (9) 
N-formyl-L-methionyl group

>  <Star>  (9) 
3

>  <Definition>  (9) 
An amino-acid residue derived from N-formyl-L-methionine.

>  <Secondary ChEBI ID>  (9) 
CHEBI:33718
CHEBI:82797
CHEBI:42505

>  <SMILES>  (9) 
C(=O)(N[C@H](C(=O)*)CCSC)[H]

>  <Formulae>  (9) 
C6H10NO2S

>  <Charge>  (9) 
0

>  <Mass>  (9) 
160.21514

>  <Monoisotopic Mass>  (9) 
160.04322

>  <IUPAC Names>  (9) 
(2S)-2-formamido-4-(methylsulfanyl)butanoyl
N-formyl-L-methionyl

>  <Synonyms>  (9) 
(2S)-2-(formylamino)-4-(methylthio)butanoyl
N-FORMYLMETHIONINE
N-formyl-L-methionine
N-formyl-L-methionine residue
fMet
fMet-
formylmethionyl

>  <PDBeChem Database Links>  (9) 
FME

>  <RESID Database Links>  (9) 
AA0021

>  <PubChem Database Links>  (9) 
SID: 49742691

>  <Rhea Database Links>  (9) 
RHEA:24420

>  <SABIO-RK Database Links>  (9) 
329

>  <UniProt Database Links>  (9) 
P69545
P69803
P69802
P69801
P69804
P69807
P69806
B7GUZ7
A3N2N5
B3GYS0
B0BRR3
A6VKJ6
A0KEW9
A4ST58
B9J8C6
Q8UID0
B9JQX1
B2UQR9
Q0VTE2
A1WD32
A1TW87
Q6F6P9
B2I2H7
B7I2C3
A3MAA1
B0VQ12
B0VAE0
C1F542
A0LUE0
B9MI87
A5FVK3
B7J3C1
B5EJ84
P0A884
P0A886
P0A885
Q65JS5
Q6HEU9
C0RMH3
Q576T0
A9MCV9
Q9PJL2
Q5L722
B8G4D0
Q3ATB5
B3EE18
B3EPG6
Q9Z7Q5
A1BHJ9
B9LFJ4
Q7NQ76
Q1QTJ4
A5CRW8
Q8XJL3
A0Q115
Q0SS78
B6J3C2
B1VDP0
B6J655
A4J579
B8J1H5
Q6AQ97
A8A592
B1X6E0
A1AGH9
Q0TCH4
A7HLH4
C4ZEV8
B0S140
A4IM47
C5D8R6
A5GBL0
Q5X1U6
A4G1G8
Q0I182
Q38XT6
A5IAY3
B1MCB9
A0QI16
A6Q4C9
Q3J6T9
Q3SN28
Q5YTN5
B4F1L6
Q7VBU5
Q7V7H4
C1B4K2
C0ZZD9
Q21RP5
Q5WFK7
A8FD38
P94463
Q8A0S6
A5VVU0
P64132
A9WW44
Q824Q3
Q3KLG7
B0B8A4
O05101
B0REV2
A3DCX5
Q895Q1
A9N9H5
A9KH14
A1V9B4
Q725Q9
A5EWL9
B1IQ12
Q8FD13
Q7NJK1
A5FNN7
B0UWZ4
Q5WTK7
Q5ZSC5
A1KIJ5
P64135
C1AN51
Q8YRI6
A1SJG2
Q2G493
Q6NC50
Q7TUA3
Q2J2C5
B8ZMJ8
B1I7J8
Q48S21
C1CSZ4
C1CM71
A9VTA4
A6KWC4
A1UUB5
B8D9S0
P64133
P57564
Q8KCG8
B0B9Y3
O84535
B2V4B2
A6LSJ8
B5Y7I0
Q48AS9
A7MPE8
Q83AA8
B8E0X6
B5YF45
B7NDQ9
P23882
B6I201
Q0RF89
A6H148
B0U0T8
Q5FPX2
A9HKQ4
Q04SV8
Q96DP5
B4U5Z8
Q6AF77
Q050Y2
B1XW99
Q8ER25
Q2SRX1
A6WYK8
Q46KX0
A2BRA1
Q5M3I7
Q5LYX4
B9DV45
C1CFV7
A6QB68
Q30QP2
B2V969
Q6G1G8
Q6G5F1
A9ILK1
B8D822
Q8K974
P59557
B8I255
B2THS2
Q182S2
Q6NH23
C3PG27
Q8FT52
B7KHD0
B8HUR2
Q47K50
A7ZSH6
A8LLC0
B7UK11
Q1R645
B1LGP4
C5BF18
A8LE22
Q2J845
Q14HS3
Q7VK98
Q0BUB3
Q8F3K6
Q5QXI6
A6SU87
Q72S34
A4TC02
P47605
A5CF64
B6JJP7
Q48QI2
A4SFP1
Q15ZY3
A6UX80
A6TRW7
Q0A5C0
A8MH85
Q6MJL7
Q1LT57
C5C697
B8DTX1
Q1BSJ4
B1YPX6
Q8NQ47
A4QEH4
Q4JVI0
A5FPB5
Q3Z614
Q3ZZW0
B7LHY8
B7MCQ3
Q8X8F1
Q2GFU1
Q3YSQ0
Q5FFG4
Q2A2U6
A7NCY0
B2SGG5
A5UEB3
Q4QMV7
A5UH91
A6WCA9
Q28V76
Q9CCQ0
Q92AI5
B8ZUM6
B2HP60
Q6MTF8
A1AZR0
A6LCS5
A7HPQ2
Q6ME71
Q2JK54
B7V0Q3
Q2JTY2
Q0AXL4
A5GKR0
Q7U6Z1
Q3AK21
Q55163
B7IFU7
A6LJK9
A8F525
Q2IGM4
B8J9P3
B3DRM9
A1A0U2
A0KBJ7
B1K0J5
B4E7V8
A9BS67
Q9RRQ3
B7NLK7
B5YT07
B7N172
B2KCQ4
Q5HBX2
A4WF96
Q0BLC5
A0Q626
Q5NGC1
B8F7U6
P44787
Q2SQX2
A6TEU1
B5XNC3
Q1IIS2
Q71YJ3
C1KWC2
B8DDS9
Q8EX00
Q741F8
P75235
Q98RG4
Q6D001
P57949
Q3SMS3
Q02V63
Q31J85
B1AJA4
Q73M65
O83737
B1GZ11
Q9PQ27
B5ZBV9
B5FCW7
A7N122
Q5E1Q7
Q87KD4
B7VMX2
Q2GJB8
Q5PBC7
B4UGK3
B7GUP8
Q8G3H1
A9AC69
Q0BAT6
Q62MT4
C4ZUE2
B7M0Z3
B2VK94
Q82ZD8
Q8RDM3
A4IXN6
B8CWS7
A1WZH3
C4K6Y1
Q5FJH5
C5CG19
Q03RS3
A0AJS8
Q8Y676
B1HQE4
B9EB94
A3PZ81
A0QWU2
A1UFM0
Q03FY3
C6DFR6
Q1IH35
O85732
Q4KKR0
C3KE47
Q5H5D0
Q2P825
B2SL54
B2I8S3
Q9PEV1
A7FNK3
Q87AR0
A1JRZ2
A9R926
B2K505
Q8ZJ80
Q664V3
A4TH22
B1JJH7
Q5NPC5
O67890
Q3M7E8
Q493I2
Q7VQC1
Q3JXE1
A3NQ23
C4Z520
B7LRQ4
B9M2D5
B5ED77
B0TGS9
Q17Y87
B6JMY1
B3WEW9
Q038H3
Q049P0
A0L3X7
Q2WAS9
Q65QF1
A1TWN0
A5U2A8
Q1B9E3
P9WND2
A1ALC4
Q3B2V0
A5D1B9
Q4FNG0
A1R5R2
Q3IDI3
A4XNB2
Q5P4H6
B8HH63
Q0SPA1
Q2L0K7
Q7WQS8
B2JJU4
A3N4D4
B2T1K6
B3EAP0
Q5L0S3
Q39QC2
Q74GW4
Q9ZK72
Q1CSC6
P56461
Q044H0
B2GD55
Q11LC8
Q6F155
Q603G2
Q1H4Y0
A0PPK9
P9WND3
A1T8J4
B4RDU2
C0QUK8
Q7MYI1
Q3KKE6
A5VWJ8
B0KF29
Q88RR2
Q31LC9
Q67PR4
Q2LRX4
Q5N0J8
B1XP50
Q0IAL3
A5GU17
Q3AXQ4
Q47R04
Q8DHS1
A5IJP6
Q9WYZ8
B9KBC2
B1L8W7
B6YQF1
A0JVJ5
B7J100
O51091
B5RKW3
Q39BU5
Q63YR6
Q2T2B1
A9B2Z9
Q9CEE9
Q74IM9
A2RN27
Q02WP8
B8IFQ3
B3DXI7
A2SCF7
B2A2K2
Q1DCG7
Q5F5P7
B4RPX5
A1VU45
Q6LLJ2
B1XSN1
Q88B42
B1J432
Q500T0
Q5SLH3
Q72H32
Q8R9T1
P43523
Q114P5
B5YIL6
C4L7Y3
B2S3Z5
A1WQ79
C5CQE1
O87726
A5F4B4
C3LPB8
Q9KVU4
Q7MGK5
Q8DDE4
Q73GR6
Q8D259
B3CLK1
C3P637
A7Z4J3
C3L761
B2S1P9
Q662V0
Q147A4
A4JJ22
A4XL81
Q1WUB1
Q88WL3
B0JY70
B0UP41
Q9JWY9
A9M463
Q9K1K6
B2RM92
A4T0M5
Q7MTE3
B4S9B8
A1SR38
A4VFH7
C0R3S7
Q7MA26
Q8PG21
Q4UQ15
Q3BNK7
B0U4M3
Q8P4G0
Q13F19
P32785
B2IS85
B5XMI3
Q21B59
A4WNU8
Q3IZH6
B9KML7
C3PMQ0
Q1RJ22
O33508
O33510
P50932
O33543
C4K0Y8
Q81WH2
A0RHN9
B7JJV3
A9IFQ1
Q7W1V2
A0RR35
A7H026
A7I168
Q2RK24
Q9D799
Q0AJ02
A1KRE6
Q820J7
A2C296
Q6A8H1
B2U795
Q8Y3A8
Q5I0C5
A9WR74
A4VZN1
Q8DNR7
C0MH30
A4VTF3
A3CPX4
A3PMS1
B3QCH2
O33545
O33509
O33520
O33544
A4FBJ4
A7NNY4
Q16AL2
Q1GDF7
C0PZV0
A8LY30
Q57J63
A9N8B2
B5BGV4
B4TXB1
B8E3S3
A1S1J8
A3CYK4
A6WHB0
C1EP90
B7IUM5
B7HDY9
B5RQP3
Q7VS89
A8FJQ3
A7H1H2
Q9PJ28
Q2YC20
Q1QH77
A2C9M6
A8G4Z4
A9BAJ3
Q2KD50
B3PZF7
Q98D53
O33523
O33519
A8F0W5
O33535
O33575
B0BWL1
O33582
Q1AVZ9
A5V070
Q5LNI8
B5F7R4
B5R1E4
B5FJI3
B5RH48
B4TJX8
Q12TA6
Q8Z1X0
A4X631
A9KUA1
Q08A29
B0TLC9
Q0I0S3
A8GYH2
Q0HPA7
A9FL08
Q0T015
Q83PZ0
Q023V5
Q1GWK0
A5VDM0
P64136
Q5HGL6
A6QGB6
A7GRJ6
B7HLJ9
B9IVF5
A1QYL4
O77480
Q89BP0
Q5HX68
A1VXI1
Q31AS6
A2BWG3
Q92SH5
B5ZN20
C3MF25
Q5PIT7
B4SUQ9
Q9UTG6
Q8ZLM6
A8GKG6
Q8EKQ9
A3QJF5
B8CHB1
A4Y1C6
A0KR60
A8FP74
A6U135
A1RDX6
Q3YWX2
A7X1H4
Q2FHM2
Q2FZ68
Q6GHL9
P99127
Q6G9Z7
A8Z3Q2
A8AVV3
Q5HPX5
Q8CSW1
C0M780
C1C8X2
Q8DVK4
Q5XAP4
Q8P003
Q1JAJ7
P0DB05
Q97PA6
Q636G0
Q819U1
A4YLC0
A5ESQ6
Q3AC19
B9KER4
B8GYF1
B6IPI1
Q7UHZ6
B2U2Q5
B1KCW3
Q31VY9
Q32B62
Q2NQQ3
A6U5I5
Q2YXK0
A5ISA1
B9DPM5
Q8NX18
P64137
Q3K365
P64138
Q827P7
Q1CCX5
B1W473
Q99YM7
Q04J40
Q1JKP9
Q1C2X8
Q64PD6
Q5L975
Q9K9Y6
Q2YJQ3
B2SC20
B0T1S7
Q9ABE9
A9WAR0
Q9L0Y6
B2FIR3
B4SKH6
B5E782
P0DB04
Q1J5I9
Q1JFP0
A2RD70
Q37304
P69447
P68705
P00845
P68701
P68700
P68702
P68706
P68699
P68703
P68704
O57579
P79235
P80562
P80507
P82889
P03887
P79176
P21462
P79189
P33766
P79241
Q05394
A5A618
P15527
P0ABJ9
P00268
A9L980
P03892
P69776
P0ABK0
P0ABK1
P0ABK4
P0ABK3
P0ABK2
Q8GPI4
P04170
P03898
P00270
P15412
P56263
P03902
A8SE55
A6MMA6
Q0G9X8
Q6ENJ3
P0C405
Q09MJ4
A0A319
A4QKR5
A8W3A8
A7M8Y8
A8W3H4
A7M950
A6MMJ1
A4QL03
P0C406
P0C407
P62102
Q0ZJ36
Q06H13
P62104
Q49L14
B2XWN3
Q68S22
A0ZZ19
Q06FX7
Q3BAQ8
A4GGB3
Q06GS6
Q09G62
Q14FH3
A4GYP2
Q2L8Y9
B2LMH7
Q1KXX5
P25876
A6MMS8
A7Y3A3
Q06RE7
Q56P16
A4QL90
Q0G9N5
A4QLH8
A8Y9F4
P62105
Q09FX7
P62101
B1NWD4
Q09X33
A4QLR7
Q3C1F9
Q33C55
P62106
A1XGM2
A9LYG9
Q3V550
A4QJ99
Q6EW64
B0Z4N3
B0Z4W7
B0Z551
B0Z5D5
A4QJZ6
Q589B2
Q6L3B2
Q6ENY3
P62107
Q2MIB6
A4QJI3
A1E9Z2
Q70Y13
P62108
Q2MIK3
Q2VEJ2
A1E9Q8
A4QK89
A4QK02
P62100
P59762
A4QKH6
B3TNB7
A6MM20
Q7HKY2
B1A919
A6MVX8
Q2PMS7
P62103
P00396
P61840
P68553
P68554
P68530
Q9SHI1
Q9XEK9
Q08810
Q6B8S2
O78489
P57997
P51257
Q1XDN0
B7I3R9
A1TSK3
Q6FF40
B7H115
B2I2M7
B0VLU2
B0VE81
A1W8Z4
A0LV27
C1F697
A5FV21
A3N005
B3H163
B0BNR5
A6VNE0
B9JYK6
A0KNE3
A4SJR5
Q8UJ51
Q0VSS1
B6ENE2
Q0A797
B3EUG6
A6TRK7
A8MFA8
B4RXT8
B8JFY6
Q2IPZ7
B4UHG0
A7H9F3
Q5PAJ5
Q2GKQ2
Q3MBZ7
B7GG75
O67825
O59683
P46198
P46199
Q91YJ5
B8HG54
A8EWD7
Q5NZS1
A1R516
A0JUU0
Q2NIQ6
A8IG20
B6YQ44
P25038
C3P5L5
A1K7B9
C1DFK9
A7Z4T4
C3L7B4
A0RHI4
Q81WM3
P26647
P0A8K1
A9JX08
Q2FWM8
Q5HEG6
P0A0M1
P0A0M2
Q6GF37
Q6G7S2
P0C1V1
Q8NVK6
Q47505
P00847
P03929
P61829
P61828
P03910
P0C0X9
P0DJO0
P07503
P02947
P07368
P09927
P82543
A9JX05
A9JX06
A9JX07
P85219
P85222
P85220
P85223
P85221
P85224
P41022
Q8KFT1
O84098
Q1QSZ0
Q7NY13
A8AQ58
A5CSZ4
B0RDY9
Q97I51
A7FVZ3
A4IMD7
P04766
Q74CT3
C6E2Q0
C5D9C9
C1AFV3
B1MD87
P65132
A1KMI2
Q2SSE6
Q7NBZ4
Q02FS8
Q15V72
A6VCK1
B7V1F6
Q9ZF31
B4TWD8
Q8Z3H7
A4X4N7
A8G907
Q67P86
C1CQ48
Q30SS6
A6QBQ5
B2TJ55
C3L0B6
A6LSQ4
B2V4G9
A5I4J3
C1FS59
B1II49
Q5FQM3
A5GF86
Q7NH85
A9HF18
Q0BPG2
A0LXQ1
Q7VLI2
Q4A7E2
P47388
A4TCF8
Q5ZZV6
Q4A9A2
B8ZRT4
Q9Z5I9
B2HKS2
A3D7K6
Q9HV55
Q1IF43
Q4KIF6
A1S462
B8E6N2
A6WRG8
A9KZX1
Q2JSB7
Q2LWU6
Q31LL9
A0LHL8
Q2JMD7
B1XI09
B7HDT6
Q732Q9
B7IUH1
C1EP35
B7HLE6
A7GRE3
B9IVA1
Q812X7
Q636L3
Q18BH4
A7GG06
B1KWK7
B8I6E7
A5N842
A0Q0Q7
Q0TPR7
P44323
Q4QK37
A5UBT6
A5UF34
Q2SML3
A1WXV1
B8CW72
Q8EWU0
Q6KID8
Q6MTQ0
Q73VV4
P75590
Q98R05
A5W987
C3K259
Q3IJ53
A4XYE0
A3QGU5
Q12QI1
Q086H2
B0TQA2
Q8EHL5
A8H740
A5GVG4
Q5N0A5
A5GNJ0
Q7U8L9
Q0I7K2
Q6HF02
Q5LIN1
Q64ZR4
Q9KA77
Q65JI1
A8FDD1
Q5WFU2
P17889
Q895J8
Q8XJR8
A9KNW4
Q0SSD4
A3DE44
Q482T9
C3PH19
Q6NGN2
B6JKX5
C4K3F0
Q17WQ8
Q7VHF6
B5Z6E6
Q1CUA6
Q1BA94
Q4A578
A3PY75
A1UER8
A5U6J1
P9WKK0
P9WKK1
B1J2A9
Q3KI84
B0KHX8
Q88DV7
A8FYS0
A4Y9C0
B8CKH3
A0KTZ6
Q0HLG1
Q0HXR5
P72689
Q3AZB7
Q3AHW1
Q0AYI8
C5BPV9
A1UU50
Q8A2A1
A6L030
A9VT50
Q6G4W7
Q6G0P2
A9IMT5
Q1LSK8
Q4JV51
Q8FPA7
A4QEZ2
Q8NP40
B1VGC2
B6J6B1
B6IZ61
A9KBM1
A4G7S7
Q9ZM46
B2USN4
P55972
Q0I3P5
B0UU13
B2A397
A0PQC4
A1T7H8
Q1DAM6
Q5F797
B4RMZ3
Q4FVL5
Q87WQ5
Q4ZNR2
A4VPP0
Q31W47
A1RGX5
B1KRR0
B2U207
Q32BG5
Q0T0B3
A8F5A0
B7IF03
Q8DK04
Q47RV1
A6LP48
B8DW43
Q6MMS6
B2IIJ7
C5BWS3
A1A0A2
B3DQF0
Q0K9B9
A9N8V6
Q83BS1
A7MQE1
Q46ZP1
B3R1E4
B8HUA9
B7KIU2
Q28WF7
Q0C5Z5
Q5QTY8
A6T0Y8
A6W7Z2
Q9ZF28
A1KV51
A9M1D5
Q9JTB5
Q9JYD2
Q0AFJ3
Q82WD0
Q1QS64
Q2Y7W2
Q1LLR6
Q1QEP5
A1ST45
A5WBS5
B2UAA3
Q2NW23
Q83JF9
Q3YX73
A6UF29
Q01W31
Q1GVI9
B0K1D6
Q9WZN3
A5IJ09
B0K9Q0
B1L7T1
Q72KE8
Q493T7
Q8G3Y5
B7GNA3
Q7VQM3
Q2KXY7
Q0SM50
Q7WHG2
O51741
Q65ZX2
A5FQR6
Q11PK5
Q47D94
Q3Z7U3
Q3ZXU3
C1CUQ9
Q1IZ02
Q1IIT3
B5XSX4
A6TEI7
B2GKR5
C5CDZ4
Q5FJN6
Q03QT5
Q038M5
Q5YSC6
Q3J9B6
A6Q226
Q3SWP9
A1SLK7
B2J955
Q2KDZ5
Q8XZV6
A9WPV8
B3PXE3
Q1MN39
Q2FHG9
A5VCZ5
A7X1Q1
A6U188
Q2G2D0
A5ISF3
Q31GK5
P48515
Q8RA37
B5YHT8
Q3SKX1
Q89WA9
Q7W9A5
A9ITX6
Q7VYR2
A5E866
A4YJE9
Q2YQR7
B8J1Y4
Q9RTG5
B8FCY5
C0QHM2
Q30WJ0
Q24UI6
A8ZZ65
Q6AJY4
A4J5X2
Q72ER1
A1VG83
B2GBN7
B3WER5
Q1G9P9
Q049V5
Q044B7
A8YVQ7
A6WWW5
Q8YQJ1
Q2G5E7
Q8EQU1
Q04GN0
Q6YR66
C0ZYA5
Q98BI8
Q92SW4
Q7URR0
Q21WJ5
C1B313
Q2J2J9
P65133
Q2YXP7
Q5HGG2
A6QGG8
P65134
Q6GHG6
Q6G9U4
O83861
B8GP02
C4L8X4
Q73NP6
Q10XM3
A5VTB2
Q57AA0
A9M9Z4
Q8YEB3
B0CK11
Q8FXT2
B8D9G2
P57458
B7UJ63
A5EWY9
A8LQ56
A7ZS65
B7MB89
B7LHN3
P0A706
A2RM37
Q74IS8
P58002
Q9X764
Q030K2
Q88VK7
A5VJE0
A7HZ93
A5CEN6
A6LHS1
A1B587
Q6MD64
P57873
Q13EL8
Q07V78
Q6NCN5
Q21C31
Q2RMS0
A3PNL2
Q5HPS2
A8Z3U9
Q8NWZ1
B9DPF5
Q8CST4
Q4L5X1
Q9PQH1
Q83HG7
Q83GT8
B1AIV8
B5ZBC9
C5CLW3
B1YP36
Q8K9H1
B8D7R4
Q89AF5
Q1BWS7
B1K0M0
A0K6X5
B7M076
B5YS58
B7NKN7
B7N0V3
C4ZSQ9
B1XGY0
A8A4Y4
A1AG73
C1D8X2
B2G6V6
Q1WUF4
Q38W81
Q1MQY8
Q5X1C3
A5IHU7
Q3A4A7
Q6D9A5
C6DKK3
Q03FS3
Q3B1Z8
B4SCE7
A8GNW1
Q3IYN5
A4WW80
Q0S219
A8GW31
Q1RIX0
A8EYF4
P0A3K6
Q49X54
P55875
Q3K302
Q8E1H3
P0A3K7
Q82K53
A7MZI5
A1WLI3
A5CXX6
A5F926
Q9KU80
A3MJW4
B4E7L1
Q0BFY3
A9ABD5
A2S2L1
Q62KK9
A1V3N4
A3NUL0
Q3JSY9
P0A705
Q0TCU1
P59587
B1IQV3
B7NDF4
B6I1P3
B0SH18
Q5ZRV4
Q5WT36
Q6AG49
Q04U31
Q04ZJ5
C0QTL9
A1AMM1
A5D2S0
Q4FNM9
A9BJ54
B4RC55
Q7MYY7
Q6LUJ2
Q9ZCZ8
Q92HF5
Q4UL51
A8F223
B0BY61
A8GSP4
Q68WI4
A7NID1
A8AVQ2
Q8CJQ8
C0M8P7
B4U1E8
B1VYN5
B4SQS0
B2FN90
Q87M02
C3LSP8
Q5E7L5
B5FA79
B7VJH7
Q8DBW0
Q63TP8
A3N8V8
B2JKT4
B2T381
Q39H30
Q2SVG8
A4JDX1
Q140U6
A4XL70
A7ZC69
Q3YS01
B1LFS0
Q1R6H0
C5BFB7
Q2GGQ8
Q5FGX3
Q5HB61
A4WEY3
Q8F7K1
B0SQH4
B1XY67
Q72NX3
B1MZH4
Q03WH4
A4SY78
A1VNU2
B1XV89
Q12AU7
B2RHM9
Q7MXE4
B4S4S6
Q6A7M5
Q5LWL4
Q16D38
A5UZQ2
Q1AW55
Q1GCH2
Q8DVP9
Q99YG1
Q04LW0
P0DB84
B5E266
Q5XAH1
C1C5S8
Q5GS99
Q7MI09
Q8D2X6
Q73FL0
Q7M7X5
Q8PJ55
A8FJU1
A7GZZ3
A0RQZ4
A7I3V0
A7H1L5
Q9PIZ1
Q2NC10
Q9ZF25
Q835U8
P18311
B7LR37
C4Z5N7
B8DG02
Q92C29
C1L2N1
Q71ZZ7
Q8Y7F6
A0AIC6
B1HR05
A2C6Q5
A3PEY3
A2C4P1
A8G6Z5
A9BCI5
B5F6T8
A1AV99
Q21H61
A4FM34
A8M746
Q1JFG4
Q8NZU7
Q1JAC1
Q1JKH1
Q1J5B4
A2RD01
Q8P7U7
Q3BRP5
Q4UWA2
B0RRB4
Q2P0X1
B2SVK3
Q3AB98
A1VXL9
Q5HX30
B9KEV0
Q9AC25
B0T167
B3PI96
A9WGP6
Q5L627
A6GWV8
A7HN01
B0S1E5
A5FJF9
Q0RDS4
B0TWR3
Q2J728
A8L6F4
Q65SK9
B9EBE9
Q2VZV0
A0LE19
A1U600
B5FI13
A2BYM0
Q318P8
Q7VA20
A9MP36
Q57JH9
Q97S57
B1IA80
B8ZM93
Q48RU8
P0DB85
B2IME4
B0U1Q8
Q5GXU9
B2I726
Q9PGR3
Q87EV4
A1JIW9
Q254H4
B8GAE2
Q3AQK7
Q823F2
B3EFB1
Q9PKU0
B3QQI2
B2SEW7
Q14K20
A7NEI8
Q2A1G8
A0Q8F3
Q0BK70
Q5NIL7
A4IW10
Q11BC8
Q0AK69
A6VU29
Q6F1H1
Q609C0
Q1GXD6
B1ZDQ8
A2BT70
B4F2B9
Q7V5M4
Q7UZZ9
B4T6Z8
B5QZV8
B5REN6
B4TJ06
Q5PLB0
A9N732
C0MDY5
B5XHV3
Q8DQV2
A4W3R7
A3CQ18
A4VXH3
Q8ZBC2
A7FMS2
Q1CC07
B2K2Q5
A9R5A3
Q1CEL3
A4TRI3
B9LBJ2
B3ELN8
A1BDF1
Q9Z8M1
B0B9K4
B3QUN2
Q3KMS4
B0BB83
Q5L0I8
Q8R5Z1
B5EI57
B9M1G0
B3EAE7
Q39VA6
C5C9T1
A2SH40
B8EIA7
B0JU67
Q2RJM5
A0QIY2
Q48E77
Q46J13
A4SGG2
Q9ZF22
Q03M88
C0PZ54
B5BGJ5
Q2S1N7
Q5M1B9
Q5M5V5
B9DVB7
C1CCT8
C1CJ39
P06008
P11350
P39321
P02920
P11697
P11698
Q66F60
B1JLY0
Q5NQ27
P03920
P21109
P11699

>  <Last Modified>  (9) 
30 Oct 2014

$$$$

     RDKit          2D

 28 27  0  0  0  0  0  0  0  0999 V2000
  -15.8335    1.3693    0.0000 C   0  0  0  0  0  0  0  0  0  0  0  0
  -15.0907    0.9568    0.0000 C   0  0  0  0  0  0  0  0  0  0  0  0
  -16.5480    0.9568    0.0000 N   0  0  0  0  0  0  0  0  0  0  0  0
  -17.2624    1.3693    0.0000 C   0  0  0  0  0  0  0  0  0  0  0  0
  -17.9769    0.9568    0.0000 O   0  0  0  0  0  0  0  0  0  0  0  0
  -16.5196    2.6068    0.0000 C   0  0  0  0  0  0  0  0  0  0  0  0
  -17.2624    2.1943    0.0000 C   0  0  0  0  0  0  0  0  0  0  0  0
  -16.5196    3.4318    0.0000 N   0  0  0  0  0  0  0  0  0  0  0  0
  -17.9485    3.4318    0.0000 O   0  0  0  0  0  0  0  0  0  0  0  0
  -17.2341    3.8444    0.0000 C   0  0  0  0  0  0  0  0  0  0  0  0
  -15.8051    4.6694    0.0000 C   0  0  0  0  0  0  0  0  0  0  0  0
  -16.9321    5.7963    0.0000 C   0  0  0  0  0  0  0  0  0  0  0  0
  -16.5196    5.0819    0.0000 C   0  0  0  0  0  0  0  0  0  0  0  0
  -16.1071    5.7963    0.0000 C   0  0  0  0  0  0  0  0  0  0  0  0
  -17.2341    4.6694    0.0000 C   0  0  0  0  0  0  0  0  0  0  0  0
  -17.9486    5.0819    0.0000 O   0  0  0  0  0  0  0  0  0  0  0  0
  -15.0907    5.0819    0.0000 O   0  0  0  0  0  0  0  0  0  0  0  0
  -13.4407    5.0819    0.0000 O   0  0  0  0  0  0  0  0  0  0  0  0
  -14.2657    5.9069    0.0000 O   0  0  0  0  0  0  0  0  0  0  0  0
  -14.2657    4.2569    0.0000 O   0  0  0  0  0  0  0  0  0  0  0  0
  -14.2657    5.0819    0.0000 P   0  0  0  0  0  0  0  0  0  0  0  0
  -14.3762    1.3693    0.0000 S   0  0  0  0  0  0  0  0  0  0  0  0
  -12.7262    5.4944    0.0000 C   0  0  0  0  0  0  0  0  0  0  0  0
  -12.0118    5.0819    0.0000 C   0  0  0  0  0  0  0  0  0  0  0  0
  -11.2973    5.4944    0.0000 C   0  0  0  0  0  0  0  0  0  0  0  0
  -10.5828    5.0819    0.0000 O   0  0  0  0  0  0  0  0  0  0  0  0
  -12.0118    4.2569    0.0000 N   0  0  0  0  0  0  0  0  0  0  0  0
  -11.2973    6.3194    0.0000 O   0  0  0  0  0  0  0  0  0  0  0  0
  7  4  1  0
  4  3  1  0
  3  1  1  0
  1  2  1  0
  2 22  1  0
  4  5  2  0
  6  8  1  0
 10  8  1  0
  7  6  1  0
 10  9  2  0
 10 15  1  0
 15 13  1  0
 13 11  1  0
 11 17  1  0
 13 12  1  0
 13 14  1  0
 15 16  1  6
 17 21  1  0
 21 18  1  0
 21 19  2  0
 21 20  1  0
 18 23  1  0
 24 23  1  0
 24 25  1  0
 25 26  1  0
 24 27  1  1
 25 28  2  0
V   26 *
M  END
>  <ChEBI ID>  (10) 
CHEBI:64479

>  <ChEBI Name>  (10) 
O-(pantetheine-4'-phosphoryl)serine(1-) residue

>  <Star>  (10) 
3

>  <Definition>  (10) 
An anionic amino-acid residue formed by proton loss from the phospho group of an O-(pantetheine-4'-phosphoryl)serine residue, the principal form present at pH 7.3.

>  <Secondary ChEBI ID>  (10) 
CHEBI:76178

>  <SMILES>  (10) 
C(NC(CCNC(=O)[C@@H](C(COP(OC[C@@H](C(*)=O)N*)(=O)[O-])(C)C)O)=O)CS

>  <Formulae>  (10) 
C14H25N3O8PS

>  <Charge>  (10) 
-1

>  <Mass>  (10) 
426.40200

>  <Monoisotopic Mass>  (10) 
426.11000

>  <Synonyms>  (10) 
4'-phosphopantetheine-L-serine(1-) residue
O-(pantetheine 4'-phosphoryl)serine group(-1)
O-(pantetheine-4'-phosphoryl)-L-serine residue

>  <PubChem Database Links>  (10) 
SID: 136349070

>  <Rhea Database Links>  (10) 
RHEA:65000
RHEA:59156
RHEA:59160
RHEA:41788
RHEA:69396
RHEA:30123
RHEA:52660
RHEA:61788
RHEA:64888
RHEA:64892
RHEA:15057
RHEA:64236
RHEA:69472
RHEA:10304
RHEA:59212
RHEA:41884
RHEA:64492
RHEA:64664
RHEA:64524
RHEA:44596
RHEA:47824
RHEA:62452
RHEA:62460
RHEA:62500
RHEA:64496
RHEA:64096
RHEA:17665
RHEA:48408
RHEA:28022
RHEA:61808
RHEA:61692
RHEA:42292
RHEA:11656
RHEA:10696
RHEA:67812
RHEA:42296
RHEA:42852
RHEA:57640
RHEA:10096
RHEA:41820
RHEA:62504
RHEA:50344
RHEA:30119
RHEA:54328
RHEA:54696
RHEA:55040
RHEA:41800
RHEA:61680
RHEA:46228
RHEA:50460
RHEA:41792
RHEA:68124
RHEA:64660
RHEA:63620
RHEA:54964
RHEA:54176
RHEA:59436
RHEA:22660
RHEA:54972
RHEA:52936
RHEA:42300
RHEA:59204
RHEA:61796
RHEA:55140
RHEA:14565
RHEA:65004
RHEA:20633
RHEA:44012
RHEA:62492
RHEA:63632
RHEA:63636
RHEA:46708
RHEA:55732
RHEA:53836
RHEA:56860
RHEA:28434
RHEA:18565
RHEA:57612
RHEA:42288
RHEA:59168
RHEA:52340
RHEA:57644
RHEA:11592
RHEA:41916
RHEA:64528
RHEA:63820
RHEA:59164
RHEA:56420
RHEA:41852
RHEA:64232
RHEA:65012
RHEA:63628
RHEA:12068
RHEA:55728
RHEA:61676
RHEA:64544
RHEA:64548
RHEA:63624
RHEA:65308
RHEA:17057
RHEA:53968
RHEA:20537
RHEA:41836
RHEA:41868
RHEA:61708
RHEA:65104
RHEA:65108
RHEA:64024
RHEA:46944
RHEA:45624
RHEA:41900
RHEA:41932
RHEA:53964
RHEA:46940
RHEA:22836
RHEA:28442
RHEA:31339
RHEA:65312
RHEA:61648
RHEA:30171
RHEA:54180
RHEA:35179
RHEA:28438
RHEA:13925
RHEA:57616
RHEA:55592
RHEA:55720
RHEA:57636
RHEA:53948
RHEA:17817
RHEA:30115
RHEA:64512
RHEA:64028
RHEA:64080
RHEA:61704
RHEA:61700
RHEA:45588
RHEA:46504
RHEA:43064
RHEA:64484
RHEA:64488
RHEA:62448
RHEA:62476
RHEA:48604
RHEA:54940
RHEA:55132
RHEA:56280
RHEA:48404
RHEA:61652
RHEA:61696
RHEA:55724
RHEA:61800
RHEA:30131
RHEA:54700
RHEA:54924
RHEA:55760
RHEA:45628
RHEA:61688
RHEA:63204
RHEA:59172
RHEA:59196
RHEA:64072
RHEA:64088

>  <Last Modified>  (10) 
29 Oct 2014

$$$$

     RDKit          2D

  7  6  0  0  0  0  0  0  0  0999 V2000
    1.0270    2.0375    0.0000 O   0  0  0  0  0  0  0  0  0  0  0  0
    0.3125    0.8000    0.0000 O   0  0  0  0  0  0  0  0  0  0  0  0
    0.3125    1.6250    0.0000 C   0  0  0  0  0  0  0  0  0  0  0  0
   -0.4020    2.0375    0.0000 C   0  0  0  0  0  0  0  0  0  0  0  0
   -1.1164    1.6250    0.0000 C   0  0  0  0  0  0  0  0  0  0  0  0
   -1.8309    2.0375    0.0000 S   0  0  0  0  0  0  0  0  0  0  0  0
   -2.5454    1.6250    0.0000 C   0  0  0  0  0  0  0  0  0  0  0  0
  3  1  1  0
  3  2  2  0
  3  4  1  0
  4  5  1  0
  5  6  1  0
  6  7  1  0
M  END
>  <ChEBI ID>  (11) 
CHEBI:1438

>  <ChEBI Name>  (11) 
3-(methylthio)propionic acid

>  <Star>  (11) 
3

>  <Definition>  (11) 
A thia fatty acid acid consisting of propionic acid with a methylthio substituent at the 3-position; an intermediate in mammalian methionine metabolism in vitro. The simplest known phytotoxin, it is a blight-inducing toxin produced by the cassava pathogen Xanthomonas campestris manihotis.

>  <InChI>  (11) 
InChI=1S/C4H8O2S/c1-7-3-2-4(5)6/h2-3H2,1H3,(H,5,6)

>  <InChIKey>  (11) 
CAOMCZAIALVUPA-UHFFFAOYSA-N

>  <SMILES>  (11) 
CSCCC(O)=O

>  <Formulae>  (11) 
C4H8O2S

>  <Charge>  (11) 
0

>  <Mass>  (11) 
120.17112

>  <Monoisotopic Mass>  (11) 
120.02450

>  <IUPAC Names>  (11) 
3-(methylsulfanyl)propanoic acid

>  <Synonyms>  (11) 
3-(Methylthio)propionic acid
3-methylthiopropanoic acid

>  <Beilstein Registry Numbers>  (11) 
1743054

>  <CAS Registry Numbers>  (11) 
646-01-5

>  <HMDB Database Links>  (11) 
HMDB0001527

>  <KEGG COMPOUND Database Links>  (11) 
C08276

>  <KNApSAcK Database Links>  (11) 
C00001194

>  <PubMed citation Links>  (11) 
100496

>  <Reaxys Registry Numbers>  (11) 
1743054

>  <ACToR Database Links>  (11) 
646-01-5

>  <BKMS-react Database Links>  (11) 
26037
168679
109810
222653
175318
168678
13825

>  <BRENDA Database Links>  (11) 
1.1.3.15
1.13.11.53
1.13.11.54
2.1.1.12
2.1.1.246
2.1.1.247
2.1.1.251
2.1.1.269
2.8.4.1
6.2.1.B11
6.2.1.13
6.2.1.44

>  <BRENDALigand Database Links>  (11) 
175318
26037
168679
109810
222653
168678
13825

>  <ChEMBL Database Links>  (11) 
CHEMBL116212

>  <MetaboLights Database Links>  (11) 
MTBLS6667
MTBLS682
MTBLS6890
MTBLS751
MTBLS7866
MTBLS899
MTBLS1708
MTBLS4567
MTBLS49
MTBLS3129
MTBLS3251
MTBLS5155

>  <NMRShiftDB Database Links>  (11) 
60020622

>  <PDB Database Links>  (11) 
6ijb

>  <PubChem Database Links>  (11) 
CID: 563
SID: 49742713

>  <SABIO-RK Database Links>  (11) 
16210

>  <SureChEMBL Database Links>  (11) 
SCHEMBL342851

>  <Last Modified>  (11) 
13 Jul 2020

$$$$

     RDKit          2D

 33 36  0  0  1  0  0  0  0  0999 V2000
   20.2073  -13.3461    0.0000 C   0  0  0  0  0  0  0  0  0  0  0  0
   21.0685  -12.8488    0.0000 C   0  0  0  0  0  0  0  0  0  0  0  0
   18.4864  -13.3377    0.0000 C   0  0  0  0  0  0  0  0  0  0  0  0
   18.4823  -14.3353    0.0000 C   0  0  0  0  0  0  0  0  0  0  0  0
   19.3511  -12.8473    0.0000 O   0  0  0  0  0  0  0  0  0  0  0  0
   17.6260  -12.8431    0.0000 C   0  0  0  0  0  0  0  0  0  0  0  0
   17.6260  -14.8299    0.0000 C   0  0  0  0  0  0  0  0  0  0  0  0
   19.3385  -14.8341    0.0000 C   0  0  0  0  0  0  0  0  0  0  0  0
   16.7656  -13.3377    0.0000 C   0  0  0  0  0  0  0  0  0  0  0  0
   17.6303  -15.8234    0.0000 O   0  0  0  0  0  0  0  0  0  0  0  0
   16.7656  -14.3353    0.0000 C   0  0  0  0  0  0  0  0  0  0  0  0
   20.2031  -14.3394    0.0000 C   0  0  0  0  0  0  0  0  0  0  0  0
   15.9052  -12.8431    0.0000 O   0  0  0  0  0  0  0  0  0  0  0  0
   16.6243  -16.4052    0.0000 C   0  0  0  0  0  0  0  0  0  0  0  0
   15.7639  -15.9065    0.0000 O   0  0  0  0  0  0  0  0  0  0  0  0
   16.6243  -17.3987    0.0000 C   0  0  0  0  0  0  0  0  0  0  0  0
   14.8994  -16.4052    0.0000 C   0  0  0  0  0  0  0  0  0  0  0  0
   15.7639  -17.8933    0.0000 C   0  0  0  0  0  0  0  0  0  0  0  0
   17.4847  -17.8933    0.0000 O   0  0  0  0  0  0  0  0  0  0  0  0
   14.8994  -17.3987    0.0000 C   0  0  0  0  0  0  0  0  0  0  0  0
   14.0390  -15.9065    0.0000 C   0  0  0  0  0  0  0  0  0  0  0  0
   15.7639  -18.8909    0.0000 O   0  0  0  0  0  0  0  0  0  0  0  0
   14.0390  -17.8975    0.0000 O   0  0  0  0  0  0  0  0  0  0  0  0
   13.1786  -16.4011    0.0000 O   0  0  0  0  0  0  0  0  0  0  0  0
   21.0719  -11.8622    0.0000 C   0  0  0  0  0  0  0  0  0  0  0  0
   21.9281  -13.3586    0.0000 C   0  0  0  0  0  0  0  0  0  0  0  0
   21.9364  -11.3675    0.0000 C   0  0  0  0  0  0  0  0  0  0  0  0
   22.8425  -12.8639    0.0000 C   0  0  0  0  0  0  0  0  0  0  0  0
   22.7968  -11.8705    0.0000 C   0  0  0  0  0  0  0  0  0  0  0  0
   21.9405  -10.3699    0.0000 O   0  0  0  0  0  0  0  0  0  0  0  0
   23.6572  -11.3758    0.0000 O   0  0  0  0  0  0  0  0  0  0  0  0
   22.8051   -9.8795    0.0000 C   0  0  0  0  0  0  0  0  0  0  0  0
   24.5176  -11.8746    0.0000 C   0  0  0  0  0  0  0  0  0  0  0  0
  7 10  1  0
  7 11  2  0
  8 12  1  0
  9 13  1  0
 14 10  1  1
 14 15  1  0
 14 16  1  0
 15 17  1  0
 16 18  1  0
 16 19  1  6
 17 20  1  0
 17 21  1  1
 18 22  1  1
 20 23  1  6
 21 24  1  0
  1 12  1  0
  9 11  1  0
 18 20  1  0
  1  2  1  6
  3  4  2  0
  3  5  1  0
  3  6  1  0
  4  7  1  0
  4  8  1  0
  5  1  1  0
  6  9  2  0
  2 25  2  0
  2 26  1  0
 25 27  1  0
 26 28  2  0
 27 29  2  0
 27 30  1  0
 29 31  1  0
 30 32  1  0
 31 33  1  0
 28 29  1  0
M  END
>  <ChEBI ID>  (12) 
CHEBI:4536

>  <ChEBI Name>  (12) 
diffutin

>  <Star>  (12) 
3

>  <Definition>  (12) 
A  flavan glycoside that is (2S)-flavan substituted by a hydroxy group at position 7, methoxy groups at positions 3' and 4' and a beta-D-glucopyranosyloxy group at position 5 respectively.

>  <InChI>  (12) 
InChI=1S/C23H28O10/c1-29-15-5-3-11(7-18(15)30-2)14-6-4-13-16(31-14)8-12(25)9-17(13)32-23-22(28)21(27)20(26)19(10-24)33-23/h3,5,7-9,14,19-28H,4,6,10H2,1-2H3/t14-,19+,20+,21-,22+,23+/m0/s1

>  <SMILES>  (12) 
COc1ccc(cc1OC)[C@@H]1CCc2c(O[C@@H]3O[C@H](CO)[C@@H](O)[C@H](O)[C@H]3O)cc(O)cc2O1

>  <InChIKey>  (12) 
ZNWIOJJMPZWSQO-YRDUZITASA-N

>  <Formulae>  (12) 
C23H28O10

>  <Charge>  (12) 
0

>  <Mass>  (12) 
464.46240

>  <Monoisotopic Mass>  (12) 
464.16825

>  <IUPAC Names>  (12) 
(2S)-2-(3,4-dimethoxyphenyl)-7-hydroxy-3,4-dihydro-2H-1-benzopyran-5-yl beta-D-glucopyranoside

>  <CAS Registry Numbers>  (12) 
89289-91-8

>  <KEGG COMPOUND Database Links>  (12) 
C09636

>  <KNApSAcK Database Links>  (12) 
C00008768

>  <LIPID MAPS instance Database Links>  (12) 
LMPK12020267

>  <Reaxys Registry Numbers>  (12) 
6549261

>  <Wikipedia Database Links>  (12) 
Diffutin

>  <ACToR Database Links>  (12) 
89289-91-8

>  <MetaboLights Database Links>  (12) 
MTBLS6032
MTBLS1918
MTBLS2096
MTBLS2384
MTBLS581

>  <NMRShiftDB Database Links>  (12) 
70085901

>  <PubChem Database Links>  (12) 
SID: 223439534
CID: 442352

>  <SureChEMBL Database Links>  (12) 
SCHEMBL4740038

>  <Last Modified>  (12) 
04 Jun 2015

$$$$

     RDKit          2D

 19 20  0  0  0  0  0  0  0  0999 V2000
    1.7500   -1.0125    0.0000 C   0  0  0  0  0  0  0  0  0  0  0  0
    2.4645   -0.6000    0.0000 C   0  0  0  0  0  0  0  0  0  0  0  0
    2.4645    0.2250    0.0000 C   0  0  0  0  0  0  0  0  0  0  0  0
    1.0355   -0.6000    0.0000 C   0  0  0  0  0  0  0  0  0  0  0  0
    1.0355    0.2250    0.0000 C   0  0  0  0  0  0  0  0  0  0  0  0
    0.3211    0.6375    0.0000 C   0  0  0  0  0  0  0  0  0  0  0  0
   -0.3934    0.2250    0.0000 C   0  0  0  0  0  0  0  0  0  0  0  0
   -0.3934   -0.6000    0.0000 C   0  0  0  0  0  0  0  0  0  0  0  0
    0.3211   -1.0125    0.0000 C   0  0  0  0  0  0  0  0  0  0  0  0
    1.7500    0.6375    0.0000 C   0  0  0  0  0  0  0  0  0  0  0  0
    1.7500    1.4625    0.0000 O   0  0  0  0  0  0  0  0  0  0  0  0
    2.4645    1.8750    0.0000 C   0  0  0  0  0  0  0  0  0  0  0  0
    3.8934    1.8750    0.0000 C   0  0  0  0  0  0  0  0  0  0  0  0
    4.6079    1.4625    0.0000 N   0  0  0  0  0  0  0  0  0  0  0  0
    5.3224    2.7000    0.0000 C   0  0  0  0  0  0  0  0  0  0  0  0
    5.3224    1.8750    0.0000 C   0  0  0  0  0  0  0  0  0  0  0  0
    6.0368    1.4625    0.0000 C   0  0  0  0  0  0  0  0  0  0  0  0
    3.1789    1.4625    0.0000 C   0  0  0  0  0  0  0  0  0  0  0  0
    3.1789    0.6375    0.0000 O   0  0  0  0  0  0  0  0  0  0  0  0
 10  5  2  0
 10  3  1  0
  4  1  2  0
  1  2  1  0
  2  3  2  0
  9  4  1  0
  5  4  1  0
  6  5  1  0
  6  7  2  0
  7  8  1  0
  8  9  2  0
 10 11  1  0
 11 12  1  0
 12 18  1  0
 18 13  1  0
 13 14  1  0
 14 16  1  0
 16 15  1  0
 16 17  1  0
 18 19  1  0
M  END
>  <ChEBI ID>  (13) 
CHEBI:8499

>  <ChEBI Name>  (13) 
propranolol

>  <Star>  (13) 
3

>  <Definition>  (13) 
A propanolamine that is propan-2-ol substituted by a propan-2-ylamino group at position 1 and a naphthalen-1-yloxy group at position 3.

>  <SMILES>  (13) 
CC(C)NCC(O)COc1cccc2ccccc12

>  <InChI>  (13) 
InChI=1S/C16H21NO2/c1-12(2)17-10-14(18)11-19-16-9-5-7-13-6-3-4-8-15(13)16/h3-9,12,14,17-18H,10-11H2,1-2H3

>  <InChIKey>  (13) 
AQHHHDLHHXJYJD-UHFFFAOYSA-N

>  <Formulae>  (13) 
C16H21NO2

>  <Charge>  (13) 
0

>  <Mass>  (13) 
259.34348

>  <Monoisotopic Mass>  (13) 
259.15723

>  <IUPAC Names>  (13) 
3-(naphthalen-1-yloxy)-1-(propan-2-ylamino)propan-2-ol

>  <Synonyms>  (13) 
1-((1-Methylethyl)amino)-3-(1-naphthalenyloxy)-2-propanol
1-(isopropylamino)-3-(1-naphthyloxy)propan-2-ol
Propanalol
Propanolol
Propranolol
beta-Propranolol
propranololo

>  <INN>  (13) 
propranolol
propranololum

>  <Beilstein Registry Numbers>  (13) 
987417

>  <CAS Registry Numbers>  (13) 
525-66-6

>  <Drug Central Database Links>  (13) 
2303

>  <DrugBank Database Links>  (13) 
DB00571

>  <HMDB Database Links>  (13) 
HMDB0001849

>  <KEGG COMPOUND Database Links>  (13) 
C07407

>  <KEGG DRUG Database Links>  (13) 
D08443

>  <LINCS Database Links>  (13) 
LSM-4329

>  <PubMed citation Links>  (13) 
18259090
24495884
24504055

>  <Reaxys Registry Numbers>  (13) 
987417

>  <Wikipedia Database Links>  (13) 
Propranolol

>  <ACToR Database Links>  (13) 
525-66-6
13013-17-7

>  <BKMS-react Database Links>  (13) 
3905
66047
45500
5606

>  <BRENDA Database Links>  (13) 
1.11.2.1
1.14.13.8
1.14.99.1
1.21.99.4
2.3.1.37
2.3.1.67
2.7.7.15
2.7.11.15
2.7.11.31
2.8.2.1
3.1.1.1
3.1.1.20
3.1.3.1
3.1.3.4
3.1.4.4
3.4.21.68
4.6.1.14
7.6.2.2

>  <BRENDALigand Database Links>  (13) 
3905
66047
5606
45500

>  <BindingDB Database Links>  (13) 
25761

>  <ChEMBL Database Links>  (13) 
CHEMBL27

>  <CompTox Database Links>  (13) 
DTXSID6023525

>  <EnzymePortal Database Links>  (13) 
O43688
O14495
Q04396
O14494

>  <MassBank Database Links>  (13) 
EA017101
EA017102
EA017103
EA017104
EA017105
EA017106
EA017107
EA017108
EA017109
EA017110
EA017111
EA017112
EA017113
EA017114

>  <MetaboLights Database Links>  (13) 
MTBLS630
MTBLS6777
MTBLS7236
MTBLS6831
MTBLS90
MTBLS1455
MTBLS124
MTBLS1906
MTBLS1693
MTBLS4861
MTBLS5195
MTBLS2633
MTBLS2806
MTBLS320

>  <NMRShiftDB Database Links>  (13) 
60025561

>  <Patent Database Links>  (13) 
EP1764111
WO2007089745
WO2007092270
WO2007098387
WO2007098390
WO2007103687
WO2007110753
WO2007117605
WO2007117621
WO2007123883
WO2008122020
WO2008128647
WO2008138912
WO2008157240
EP1184035
EP1438962
EP1512394
EP1586349
EP1602334
EP1639994
EP1661558
EP1661560
EP1681051
EP1685843
EP1700601
EP1702623
EP1710256
EP1717226
EP1726650
EP1754712
EP1790353
EP1829534
EP1832576
EP1839648
EP1862181
EP1894567
EP1902706
EP1939188
EP1946777
EP1967527
EP1990049
EP1990639
GB2227664
GB2264710
GB2349386
US2002082300
US2002115655
US2004068017
US2004147575
US2005043325
US2005065209
US2005085497
US2005119312
US2005124661
US2005137216
US2005176749
US2005182110
US2005261242
US2006154962
US2006154975
US2006189598
US2006258652
US2007179087
US2007190023
US2007184076
US2007184114
US2007185056
US2007191371
US2007191438
US2007202162
US2007203155
US2007207222
US2007232648
US2007238674
US2007243250
US2007243252
US2007244130
US2007248658
US2007248677
US2007249583
US2007258894
US2007259051
US2007259890
US2007264334
US2007269513
US2007270412
US2007270453
US2008161372
US2008255036
US2008262086
US2008280895
US2008292608
WO2005018561
WO2005030758
WO2005047248
WO2005051386
WO2005070207
WO2005072132
WO2005072729
WO2005072732
WO2005073203
WO2005073221
WO2005090304
WO2005105096
WO2005113506
WO2005113519
WO2005116000
WO2005116016
WO2006076509
WO2006078995
WO2006084176
WO2006091697
WO2006122186
WO2006124713
WO2007087367
WO2007087448
WO2007089557
WO2007089667
WO2005042712
GB2140687
US2004142904
US2004254182
US2005069596
US2005288327
US2006030605
US2006135511
US2006148790
US2007184020
US2008255073
US2008293701
WO2005013894
WO2005074933
WO2006031676
WO2006083924
WO2006136402
WO2008122787
WO2008156816
EP1040829

>  <PubChem Database Links>  (13) 
CID: 4946
SID: 26744226

>  <Reactome Database Links>  (13) 
R-HSA-390674
R-HSA-9609310
R-HSA-9611851
R-HSA-9611852

>  <SureChEMBL Database Links>  (13) 
SCHEMBL3955

>  <UniProt Database Links>  (13) 
Q14693
Q04396
O14495
O77408
O01670
P32567
B9W4V6
P18089
P08913
P33261
O43688
O14494

>  <Last Modified>  (13) 
22 Feb 2017

$$$$

     RDKit          2D

 15 14  0  0  0  0  0  0  0  0999 V2000
   -1.7813   -1.0812    0.0000 C   0  0  0  0  0  0  0  0  0  0  0  0
   -2.4957   -1.4937    0.0000 C   0  0  0  0  0  0  0  0  0  0  0  0
   -2.4957   -2.3188    0.0000 C   0  0  0  0  0  0  0  0  0  0  0  0
   -1.7813   -2.7313    0.0000 C   0  0  0  0  0  0  0  0  0  0  0  0
   -1.0668   -2.3188    0.0000 C   0  0  0  0  0  0  0  0  0  0  0  0
   -1.0668   -1.4937    0.0000 C   0  0  0  0  0  0  0  0  0  0  0  0
   -0.3523   -1.0812    0.0000 C   0  0  0  0  0  0  0  0  0  0  0  0
    1.0766   -1.0812    0.0000 C   0  0  0  0  0  0  0  0  0  0  0  0
    0.3622   -1.4937    0.0000 C   0  0  0  0  0  0  0  0  0  0  0  0
   -0.3523   -2.7312    0.0000 C   0  0  0  0  0  0  0  0  0  0  0  0
    1.0766   -2.7312    0.0000 C   0  0  0  0  0  0  0  0  0  0  0  0
    1.7911   -2.3187    0.0000 C   0  0  0  0  0  0  0  0  0  0  0  0
    2.5056   -1.9062    0.0000 C   0  0  0  0  0  0  0  0  0  0  0  0
    0.3622   -2.3187    0.0000 N   0  0  0  0  0  0  0  0  0  0  0  0
    0.3622   -3.9687    0.0000 Cl  0  0  0  0  0  0  0  0  0  0  0  0
  1  2  2  0
  1  6  1  0
  2  3  1  0
  3  4  2  0
  4  5  1  0
  5  6  2  0
  6  7  1  0
  7  9  1  0
  9  8  1  1
  9 14  1  0
 14 10  1  0
 14 11  1  0
 11 12  1  0
 12 13  3  0
M  END
>  <ChEBI ID>  (14) 
CHEBI:9087

>  <ChEBI Name>  (14) 
selegiline hydrochloride

>  <Star>  (14) 
3

>  <InChI>  (14) 
InChI=1S/C13H17N.ClH/c1-4-10-14(3)12(2)11-13-8-6-5-7-9-13;/h1,5-9,12H,10-11H2,2-3H3;1H/t12-;/m1./s1

>  <SMILES>  (14) 
[Cl-].[H][N+](C)(CC#C)[C@H](C)Cc1ccccc1

>  <InChIKey>  (14) 
IYETZZCWLLUHIJ-UTONKHPSSA-N

>  <Formulae>  (14) 
C13H17N.HCl
C13H18NCl

>  <Charge>  (14) 
0

>  <Mass>  (14) 
223.74146

>  <Monoisotopic Mass>  (14) 
223.11278

>  <IUPAC Names>  (14) 
N-methyl-N-[(1R)-1-methyl-2-phenylethyl]prop-2-yn-1-aminium chloride

>  <Synonyms>  (14) 
(-)-phenylisopropylmethylpropynylamine
Selegiline HCl
Selegiline hydrochloride

>  <BRAND Names>  (14) 
Eldepryl
Zelapar

>  <INN>  (14) 
selegiline hydrochloride

>  <Beilstein Registry Numbers>  (14) 
6001504

>  <CAS Registry Numbers>  (14) 
14611-52-0

>  <DrugBank Database Links>  (14) 
DB01037

>  <KEGG DRUG Database Links>  (14) 
D00785

>  <VSDB Database Links>  (14) 
1868

>  <ACToR Database Links>  (14) 
14611-52-0

>  <ChEMBL Database Links>  (14) 
CHEMBL1200904

>  <CompTox Database Links>  (14) 
DTXSID9044584

>  <Patent Database Links>  (14) 
EP1655029
EP1733719

>  <PubChem Database Links>  (14) 
CID: 25058197
SID: 56394973

>  <SureChEMBL Database Links>  (14) 
SCHEMBL41392

>  <Last Modified>  (14) 
28 Jul 2014

$$$$

     RDKit          2D

 36 38  0  0  0  0  0  0  0  0999 V2000
    5.7145    2.4000    0.0000 C   0  0  0  0  0  0  0  0  0  0  0  0
    5.7145    3.2250    0.0000 C   0  0  0  0  0  0  0  0  0  0  0  0
    6.4289    3.6375    0.0000 C   0  0  0  0  0  0  0  0  0  0  0  0
    4.2855    3.2250    0.0000 N   0  0  0  0  0  0  0  0  0  0  0  0
    5.0000    1.9875    0.0000 N   0  0  0  0  0  0  0  0  0  0  0  0
    5.0000    3.6375    0.0000 C   0  0  0  0  0  0  0  0  0  0  0  0
    5.0000    4.4625    0.0000 O   0  0  0  0  0  0  0  0  0  0  0  0
    4.2855    2.4000    0.0000 C   0  0  0  0  0  0  0  0  0  0  0  0
    3.5711    1.9875    0.0000 O   0  0  0  0  0  0  0  0  0  0  0  0
    4.4438    0.0260    0.0000 C   0  0  0  0  0  0  0  0  0  0  0  0
    4.6987    0.8106    0.0000 C   0  0  0  0  0  0  0  0  0  0  0  0
    4.0313    1.2955    0.0000 O   0  0  0  0  0  0  0  0  0  0  0  0
    3.6187    0.0260    0.0000 C   0  0  0  0  0  0  0  0  0  0  0  0
    3.2062   -0.6885    0.0000 O   0  0  0  0  0  0  0  0  0  0  0  0
    3.3638    0.8106    0.0000 C   0  0  0  0  0  0  0  0  0  0  0  0
    2.6494    1.2231    0.0000 C   0  0  0  0  0  0  0  0  0  0  0  0
    1.9349    0.8106    0.0000 O   0  0  0  0  0  0  0  0  0  0  0  0
    0.2849    0.8106    0.0000 O   0  0  0  0  0  0  0  0  0  0  0  0
    1.1099    1.6356    0.0000 O   0  0  0  0  0  0  0  0  0  0  0  0
    1.1099    0.8106    0.0000 P   0  0  0  0  0  0  0  0  0  0  0  0
    1.1099   -0.0144    0.0000 O   0  0  0  0  0  0  0  0  0  0  0  0
   -0.5401    1.6356    0.0000 O   0  0  0  0  0  0  0  0  0  0  0  0
   -0.5401    0.8106    0.0000 P   0  0  0  0  0  0  0  0  0  0  0  0
   -0.5401   -0.0144    0.0000 O   0  0  0  0  0  0  0  0  0  0  0  0
   -1.3651    0.8106    0.0000 O   0  0  0  0  0  0  0  0  0  0  0  0
   -2.0796    0.3981    0.0000 C   0  0  0  0  0  0  0  0  0  0  0  0
   -2.7941    0.8106    0.0000 O   0  0  0  0  0  0  0  0  0  0  0  0
   -3.5085    0.3981    0.0000 C   0  0  0  0  0  0  0  0  0  0  0  0
   -3.5085   -0.4269    0.0000 C   0  0  0  0  0  0  0  0  0  0  0  0
   -4.2230   -0.8394    0.0000 O   0  0  0  0  0  0  0  0  0  0  0  0
   -2.7941   -0.8394    0.0000 C   0  0  0  0  0  0  0  0  0  0  0  0
   -2.7941   -1.6644    0.0000 O   0  0  0  0  0  0  0  0  0  0  0  0
   -2.0796   -0.4269    0.0000 C   0  0  0  0  0  0  0  0  0  0  0  0
   -1.3651   -0.8394    0.0000 O   0  0  0  0  0  0  0  0  0  0  0  0
   -4.2230    0.8106    0.0000 C   0  0  0  0  0  0  0  0  0  0  0  0
   -4.9375    0.3981    0.0000 O   0  0  0  0  0  0  0  0  0  0  0  0
  6  4  1  0
  6  2  1  0
  4  8  1  0
  8  5  1  0
  5  1  1  0
  1  2  2  0
  2  3  1  0
  6  7  2  0
  8  9  2  0
 12 15  1  0
 12 11  1  0
 15 13  1  0
 13 10  1  0
 10 11  1  0
 11  5  1  1
 13 14  1  6
 15 16  1  1
 16 17  1  0
 17 20  1  0
 20 18  1  0
 18 23  1  0
 23 25  1  0
 20 19  2  0
 20 21  1  0
 23 22  2  0
 23 24  1  0
 25 26  1  0
 33 26  1  0
 27 26  1  0
 27 28  1  0
 28 29  1  0
 29 31  1  0
 31 33  1  0
 28 35  1  1
 29 30  1  1
 31 32  1  1
 33 34  1  6
 35 36  1  0
M  END
>  <ChEBI ID>  (15) 
CHEBI:14086

>  <ChEBI Name>  (15) 
dTDP-D-galactose

>  <Star>  (15) 
3

>  <Definition>  (15) 
The D-enantiomer of dTDP-galactose.

>  <InChI>  (15) 
InChI=1S/C16H26N2O16P2/c1-6-3-18(16(25)17-14(6)24)10-2-7(20)9(31-10)5-30-35(26,27)34-36(28,29)33-15-13(23)12(22)11(21)8(4-19)32-15/h3,7-13,15,19-23H,2,4-5H2,1H3,(H,26,27)(H,28,29)(H,17,24,25)/t7-,8+,9+,10+,11-,12-,13+,15?/m0/s1

>  <SMILES>  (15) 
Cc1cn([C@H]2C[C@H](O)[C@@H](COP(O)(=O)OP(O)(=O)OC3O[C@H](CO)[C@H](O)[C@H](O)[C@H]3O)O2)c(=O)[nH]c1=O

>  <InChIKey>  (15) 
YSYKRGRSMLTJNL-VXZFDXESSA-N

>  <Formulae>  (15) 
C16H26N2O16P2

>  <Charge>  (15) 
0

>  <Mass>  (15) 
564.32904

>  <Monoisotopic Mass>  (15) 
564.07576

>  <IUPAC Names>  (15) 
thymidine 5'-[3-(D-galactopyranosyl) dihydrogen diphosphate]

>  <Synonyms>  (15) 
dTDP-D-galactose

>  <KEGG COMPOUND Database Links>  (15) 
C02097

>  <MetaboLights Database Links>  (15) 
MTBLS5943

>  <PubChem Database Links>  (15) 
SID: 11534169
CID: 6857679

>  <Last Modified>  (15) 
08 Apr 2010

$$$$

     RDKit          2D

 23 22  0  0  0  0  0  0  0  0999 V2000
    0.3572    0.2062    0.0000 C   0  0  0  0  0  0  0  0  0  0  0  0
   -0.3572   -0.2063    0.0000 C   0  0  0  0  0  0  0  0  0  0  0  0
   -1.0717    0.2062    0.0000 C   0  0  0  0  0  0  0  0  0  0  0  0
   -1.7862   -0.2063    0.0000 C   0  0  0  0  0  0  0  0  0  0  0  0
    1.7862    0.2063    0.0000 C   0  0  0  0  0  0  0  0  0  0  0  0
    1.7862    1.0313    0.0000 O   0  0  0  0  0  0  0  0  0  0  0  0
    1.0717   -0.2063    0.0000 C   0  0  0  0  0  0  0  0  0  0  0  0
    1.0717   -1.0313    0.0000 N   0  0  0  0  0  0  0  0  0  0  0  0
    2.5007   -0.2062    0.0000 O   0  0  0  0  0  0  0  0  0  0  0  0
   -6.0730   -0.2063    0.0000 C   0  0  0  0  0  0  0  0  0  0  0  0
   -5.3585    0.2062    0.0000 C   0  0  0  0  0  0  0  0  0  0  0  0
   -4.6440   -0.2063    0.0000 C   0  0  0  0  0  0  0  0  0  0  0  0
   -3.9296    0.2062    0.0000 C   0  0  0  0  0  0  0  0  0  0  0  0
   -3.2151   -0.2063    0.0000 C   0  0  0  0  0  0  0  0  0  0  0  0
   -3.2151   -1.0313    0.0000 O   0  0  0  0  0  0  0  0  0  0  0  0
   -2.5006    0.2062    0.0000 N   0  0  0  0  0  0  0  0  0  0  0  0
   -8.2165    0.2062    0.0000 C   0  0  0  0  0  0  0  0  0  0  0  0
   -7.5020   -0.2063    0.0000 C   0  0  0  0  0  0  0  0  0  0  0  0
   -6.7875    0.2062    0.0000 C   0  0  0  0  0  0  0  0  0  0  0  0
   -6.7875    1.0312    0.0000 S   0  0  0  0  0  0  0  0  0  0  0  0
   -8.9310   -0.2063    0.0000 S   0  0  0  0  0  0  0  0  0  0  0  0
   -9.6455    0.2062    0.0000 C   0  0  0  0  0  0  0  0  0  0  0  0
  -10.3599   -0.2063    0.0000 N   0  0  0  0  0  0  0  0  0  0  0  0
  9  5  1  0
  7  5  1  0
  7  1  1  0
  2  1  1  0
  3  2  1  0
  4  3  1  0
 16  4  1  0
  5  6  2  0
  7  8  1  1
 19 10  1  0
 10 11  1  0
 11 12  1  0
 12 13  1  0
 13 14  1  0
 14 16  1  0
 14 15  2  0
 17 18  1  0
 18 19  1  0
 19 20  1  0
 17 21  1  0
 21 22  1  0
 22 23  1  0
V    9 *
M  END
>  <ChEBI ID>  (16) 
CHEBI:14949

>  <ChEBI Name>  (16) 
N(6)-(S(8)-aminomethyldihydrolipoyl)-L-lysine residue

>  <Star>  (16) 
3

>  <SMILES>  (16) 
C([C@@H](C(*)=O)N*)CCCNC(CCCCC(CCSCN)S)=O

>  <Formulae>  (16) 
C15H29N3O2S2

>  <Charge>  (16) 
0

>  <Mass>  (16) 
347.54178

>  <Monoisotopic Mass>  (16) 
347.17012

>  <EnzymePortal Database Links>  (16) 
Q9PGW5
B0U270
A8G7J2
A2CDX3
A2BZ74
Q7V9I2
B4F0N9
Q87EZ6
P48015
A1JPN6
A7FF19
Q1CB44
B2K0Q5
Q8ZHI6
A9R4K6
Q1CEZ7
A4TIA5
Q666R5
B1JNS6
Q83JU1
Q3YXW5
Q2NRE8
P54260
A7X2S3
Q32BW7
Q0T0Z3
Q5KX76
C5D4A2
A4IQV5
Q7NFJ5
A1WWA3
A6U208
Q2FGI5
Q2FY33
A5IT65
Q2YSZ2
Q5HFM2
A6QH81
P64224
P64225
Q6GGG2
Q6G929
A8Z476
P64226
B9DNN7
Q5HP12
Q8CSF4
Q4L6N7
Q49XY1
Q82JI2
O86567
B4SSE0
B2FR21
Q67N36
Q31KT1
B1XP99
Q5N136
A5GPL8
Q7TTS1
A5GWT1
B9K6R7
Q0I682
Q3AVT0
P54261
C5BM95
Q8DKV6
C5A3P0
Q5JDG3
A8F8M9
A6LP67
Q9WY54
B6YY21
A5IKL0
B0KD95
B0K242
B1L9U1
Q72LB1
Q5SKX0
Q8RCV9
B8GNE2
Q8PI37
Q3BQN6
Q4UXC2
Q8P6T8
Q2P4S5
B2SSQ1
Q5H1X3
B2I6Q1
A3PFH6
A2C5F7
B3QV24
Q8KBJ9
Q7NSJ3
A8APB4
A7FRV3
Q7TUI6
Q7TU18
A2BTR9
Q46I99
A4SDB4
Q15PU4
Q9HTX5
Q3IFV9
Q88CI7
Q88AS0
Q9UZP8
Q8U185
O58888
Q1LHM4
B2UG80
Q8XUA0
Q1AR89
Q21NX7
A4FLG1
B5F5I0
A9MRH0
Q57K60
B5FUG8
B5QXI2
B5RE16
B4TGX5
B4T550
Q5PJG4
A9N3N3
C0PY28
B5BFM0
B4TV24
P64223
P64222
O14110
A8GIS1
A1S967
B8EB47
A3D083
A6WSL3
A9L332
Q12R04
Q07YC7
B0TSG7
A3QHI2
Q8EIQ8
A8H7T1
A4YAE0
B8CK16
A0L105
A8FZK6
Q0HEX0
Q0HZ30
A1RFY6
B1KG89
B2U0S2
Q31WG6
Q5NHP0
A4IZK8
A0KJ03
Q9YBA2
A4SP35
Q0VLA6
A6TMY6
Q5V230
B8D1D7
B0R5Y8
Q9HPJ7
A9B2Q5
P48728
Q5QVA8
A6TDR7
Q1INT8
Q5X8W1
A5I9T7
Q5ZZ93
Q5X0A4
B0SGN8
Q04PM9
Q055P6
B0SQA1
Q72VI6
Q8F935
Q92C06
C1L2Q4
Q71ZX4
B8DFY0
Q8Y7D5
A0AIE9
B1HSN7
P93256
Q60BW3
Q2RH46
Q8CFA2
A0QEZ6
P64221
B8ZQK6
O32955
Q73YK4
P64220
A0PTP8
Q3IN28
B2A2T4
Q9JVP2
Q9K0L8
Q0AEP7
Q82WQ6
Q3JDS3
Q5YZ49
Q8YNF7
Q8CXD9
A6L8T3
P49364
C6D8W9
Q3B5U7
B4SED4
Q7N197
B2RI74
Q7MUG4
B4S437
Q6A9R6
B3QLF1
A1BI02
C3L1M5
C1FTW3
B1IEV3
A7GB83
B1KWD5
Q486J8
C3PHK3
Q4JXU5
Q83B06
A7MR82
Q0K5P5
Q46VZ7
B3R7J7
B7K468
Q47D83
C1D0F7
B8FT33
Q24TH3
A4J2F6
Q54DD3
A7ZR14
B7UHV3
B7MM91
B7LF91
Q8XD32
B5YQ97
B7NHW6
B7MZ57
B7LYG9
C5A0H7
A8A446
Q8FE65
B1IT97
P27248
B7N7E8
B6I738
B1LDA5
Q1R7C6
C5BAT2
A4WE57
Q6D976
B2VF35
B7LPB9
B1YLN6
O49849
A6GXW3
P49363
O23936
Q0RFF6
B0TZJ8
A8LFB7
Q14J42
A7NAH6
Q2A4V3
B2SFM1
A0Q585
Q0BN73
C1F933
A8MEG4
B4RSJ5
B7GH71
O67441
O65396
A7Z6M4
C3P8D5
C3LKQ4
A0RIL1
Q81M06
B7JMV1
Q730W1
B7IXL4
C1ERV0
B7HBA0
B7HNZ1
A7GSN8
B9IXL9
Q818M3
Q634V6
Q5LFT6
Q64WS3
Q9K934
Q6HDT6
Q65HF9
A8FF41
Q5WF30
P54378
Q89YZ6
A6L6X5
A9VH12
Q6MQ03
Q2KYM2
Q7WP31
Q7W1C6
A9I7L6
Q7W0E5
P25285
B1YQQ3
B1JSZ4
B4EF28
A9ACU5
A3MQP5
A2S6F4
Q62FM9
A3P0U5
A3NEZ8
B2JJ71
Q63PL4
Q39KT9
A4JA71
Q9TSZ7
Q3AET7
B3PI82
P28337
Q3AQ17
B3EFX7

>  <PubChem Database Links>  (16) 
SID: 56352937

>  <Reactome Database Links>  (16) 
R-HSA-5693967
R-HSA-5693977

>  <UniProt Database Links>  (16) 
Q63PL4
Q39KT9
A4JA71
Q7NSJ3
A8APB4
A7FRV3
C3L1M5
Q47D83
C1D0F7
P27248
B7N7E8
C1FTW3
B1IEV3
A7GB83
B8FT33
Q24TH3
A4J2F6
B6I738
B1LDA5
B8ZQK6
O32955
Q73YK4
P9WN50
Q54DD3
A7ZR14
B7UHV3
Q6A9R6
A3PFH6
A2C5F7
A2BZ74
Q7V9I2
C1F933
A0KJ03
Q9YBA2
B8EB47
A3D083
A6WSL3
A9L332
Q12R04
Q07YC7
B0TSG7
A4YAE0
B8CK16
A0L105
A4SP35
Q0VLA6
A7Z6M4
C3P8D5
C3LKQ4
A2BTR9
Q46I99
A4SDB4
Q15PU4
Q9HTX5
Q3IFV9
Q88CI7
Q88AS0
A6TMY6
A8MEG4
A0RIL1
Q81M06
B7HNZ1
A7GSN8
B9IXL9
Q818M3
Q9UZP8
Q8U185
O58888
Q1LHM4
B2UG80
Q8XUA0
A9MRH0
Q57K60
B4RSJ5
B7GH71
B7JMV1
Q730W1
Q634V6
Q5LFT6
Q5WF30
P54378
Q89YZ6
A6L6X5
B4T550
Q5PJG4
A9N3N3
C0PY28
B5BFM0
B4TV24
P64223
P64222
O67441
O65396
B7IXL4
C1ERV0
Q64WS3
Q9K934
A9VH12
Q6MQ03
P25285
B1YQQ3
B1JSZ4
B4EF28
A3QHI2
Q8EIQ8
A8H7T1
A8FZK6
Q0HEX0
Q0HZ30
Q3YXW5
Q2NRE8
B7HBA0
Q6HDT6
Q2KYM2
Q7WP31
A9ACU5
Q9TSZ7
Q3AET7
B3PI82
Q3JDS3
Q5YZ49
Q6D976
C6D8W9
Q3B5U7
B4SED4
Q7N197
A8G7J2
A2CDX3
Q65HF9
A8FF41
Q7W1C6
A9I7L6
A3MQP5
A2S6F4
Q62FM9
P28337
Q3AQ17
B1KWD5
Q486J8
C3PHK3
Q1AR89
Q21NX7
A4FLG1
B5F5I0
B5FUG8
B5QXI2
B5RE16
B4TGX5
Q7W0E5
A3P0U5
B3EFX7
B3QLF1
Q4JXU5
Q83B06
B7MM91
B7LF91
Q8XD32
B5YQ97
Q1R7C6
C5BAT2
A4WE57
B2VF35
B7LPB9
A6GXW3
P49363
A3NEZ8
B2JJ71
A1BI02
B3QV24
A7MR82
B7NHW6
B7MZ57
O14110
A8GIS1
A1S967
A8LFB7
Q14J42
A7NAH6
B2SFM1
A0Q585
C5D4A2
A4IQV5
Q8KBJ9
Q0K5P5
Q46VZ7
B7LYG9
C5A0H7
B1YLN6
O49849
O23936
Q0RFF6
Q5V230
B8D1D7
B0R5Y8
A9B2Q5
P48728
Q5QVA8
A6TDR7
A5I9T7
Q5ZZ93
Q04PM9
Q055P6
B3R7J7
B7K468
A8A446
Q8FE65
Q2A4V3
Q0BN73
Q5NHP0
A4IZK8
Q5KX76
Q7NFJ5
A1WWA3
C1L2Q4
Q71ZX4
A0AIE9
B1HSN7
P93256
Q2RH46
Q8CFA2
P9WN51
A0PTP8
B1IT97
Q9HPJ7
Q1INT8
Q5X8W1
Q5X0A4
B0SGN8
B0SQA1
Q72VI6
Q8F935
Q3IN28
B2A2T4
Q9JVP2
Q9K0L8
Q0AEP7
Q82WQ6
Q8YNF7
Q8CXD9
B2RI74
Q7MUG4
B4S437
Q92C06
B8DFY0
Q8Y7D5
Q60BW3
A0QEZ6
P64221
A6L8T3
P49364
B4F0N9
Q7TUI6
Q7TU18
A1RFY6
B1KG89
B2U0S2
Q31WG6
Q32BW7
Q0T0Z3
Q83JU1
Q0I682
Q3AVT0
A4TIA5
Q666R5
B1JNS6
P54261
C5BM95
P54260
A7X2S3
Q8DKV6
C5A3P0
A6U208
Q2FGI5
Q2FY33
Q5JDG3
A5IT65
Q2YSZ2
A8F8M9
A6LP67
Q5HFM2
A6QH81
Q9WY54
B9K6R7
P64224
P64225
B6YY21
A5IKL0
Q6GGG2
Q6G929
B0KD95
B0K242
B1L9U1
Q72LB1
A8Z476
P64226
Q5SKX0
Q8RCV9
B9DNN7
Q5HP12
Q8CSF4
B8GNE2
Q8PI37
Q3BQN6
Q4L6N7
Q49XY1
Q4UXC2
Q8P6T8
Q2P4S5
Q82JI2
O86567
B2SSQ1
Q5H1X3
B4SSE0
B2FR21
B2I6Q1
Q9PGW5
B0U270
Q67N36
Q31KT1
B1XP99
Q87EZ6
P48015
A1JPN6
A7FF19
Q5N136
A5GPL8
Q1CB44
B2K0Q5
Q8ZHI6
Q7TTS1
A5GWT1
A9R4K6
Q1CEZ7
B0TZJ8

>  <Last Modified>  (16) 
27 Jul 2015

$$$$

     RDKit          2D

  9  8  0  0  1  0  0  0  0  0999 V2000
    1.0167    0.8107    0.0000 O   0  0  0  0  0  0  0  0  0  0  0  0
    1.0167   -0.0143    0.0000 C   0  0  0  0  0  0  0  0  0  0  0  0
    0.3023   -0.4268    0.0000 C   0  0  0  0  0  0  0  0  0  0  0  0
   -0.4122   -0.0143    0.0000 C   0  0  0  0  0  0  0  0  0  0  0  0
   -0.4122    0.8107    0.0000 C   0  0  0  0  0  0  0  0  0  0  0  0
   -1.1267   -0.4268    0.0000 C   0  0  0  0  0  0  0  0  0  0  0  0
   -1.8411   -0.0143    0.0000 C   0  0  0  0  0  0  0  0  0  0  0  0
    0.3023   -1.2518    0.0000 N   0  0  0  0  0  0  0  0  0  0  0  0
    1.7312   -0.4268    0.0000 O   0  0  0  0  0  0  0  0  0  0  0  0
  2  1  2  0
  9  2  1  0
  3  2  1  0
  3  8  1  1
  4  3  1  0
  4  5  1  1
  6  4  1  0
  7  6  1  0
V    9 *
M  END
>  <ChEBI ID>  (17) 
CHEBI:30008

>  <ChEBI Name>  (17) 
L-alloisoleucine residue

>  <Star>  (17) 
3

>  <SMILES>  (17) 
O=C(*)[C@@H](N*)[C@H](C)CC

>  <Formulae>  (17) 
C6H11NO

>  <Charge>  (17) 
0

>  <Mass>  (17) 
113.15768

>  <Monoisotopic Mass>  (17) 
113.08406

>  <Synonyms>  (17) 
L-alloisoleucine residue
L-alloisoleucyl

>  <PubChem Database Links>  (17) 
SID: 14718446

>  <Last Modified>  (17) 
04 Jun 2019

$$$$

     RDKit          2D

 12 12  0  0  0  0  0  0  0  0999 V2000
    0.0000    0.8250    0.0000 C   0  0  0  0  0  0  0  0  0  0  0  0
    0.7145    0.4125    0.0000 C   0  0  0  0  0  0  0  0  0  0  0  0
   -0.7145    0.4125    0.0000 C   0  0  0  0  0  0  0  0  0  0  0  0
   -0.7145   -0.4125    0.0000 C   0  0  0  0  0  0  0  0  0  0  0  0
   -1.9840    0.0000    0.0000 C   0  0  0  0  0  0  0  0  0  0  0  0
   -1.4991   -0.6674    0.0000 N   0  0  0  0  0  0  0  0  0  0  0  0
   -1.4991    0.6674    0.0000 N   0  0  0  0  0  0  0  0  0  0  0  0
    1.4290    0.8250    0.0000 C   0  0  0  0  0  0  0  0  0  0  0  0
    1.4290    1.6500    0.0000 O   0  0  0  0  0  0  0  0  0  0  0  0
   -1.7540    1.4521    0.0000 C   0  0  0  0  0  0  0  0  0  0  0  0
    0.7145   -0.4125    0.0000 N   0  0  0  0  0  0  0  0  0  0  0  0
    2.1435    0.4125    0.0000 O   0  0  0  0  0  0  0  0  0  0  0  0
  2  1  1  0
  2  8  1  0
  3  1  1  0
  7  3  1  0
  4  3  2  0
  6  4  1  0
  2 11  1  1
  5  6  2  0
  5  7  1  0
  7 10  1  0
  8 12  1  0
  9  8  2  0
V   12 *
M  END
>  <ChEBI ID>  (18) 
CHEBI:43903

>  <ChEBI Name>  (18) 
N(pros)-methyl-L-histidine residue

>  <Star>  (18) 
3

>  <SMILES>  (18) 
C([C@@H](C(*)=O)N*)C=1N(C=NC1)C

>  <Formulae>  (18) 
C7H9N3O

>  <Charge>  (18) 
0

>  <Mass>  (18) 
151.16598

>  <Monoisotopic Mass>  (18) 
151.07456

>  <Synonyms>  (18) 
3'-methyl-L-histidine
N(pros)-methyl-L-histidine residue
N1-METHYLATED HISTIDINE

>  <PDBeChem Database Links>  (18) 
MHS

>  <RESID Database Links>  (18) 
AA0073

>  <PubChem Database Links>  (18) 
SID: 53801239

>  <Rhea Database Links>  (18) 
RHEA:67076

>  <Last Modified>  (18) 
06 Jul 2015

$$$$

     RDKit          2D

 11 10  0  0  1  0  0  0  0  0999 V2000
   13.3264  -11.7170    0.0000 C   0  0  0  0  0  0  0  0  0  0  0  0
   12.6120  -11.3045    0.0000 C   0  0  0  0  0  0  0  0  0  0  0  0
   15.4698  -11.3045    0.0000 C   0  0  0  0  0  0  0  0  0  0  0  0
   14.7554  -11.7170    0.0000 C   0  0  0  0  0  0  0  0  0  0  0  0
   14.0409  -11.3045    0.0000 C   0  0  0  0  0  0  0  0  0  0  0  0
   15.4698  -10.4795    0.0000 O   0  0  0  0  0  0  0  0  0  0  0  0
   12.6120  -10.4795    0.0000 O   0  0  0  0  0  0  0  0  0  0  0  0
   11.8975  -11.7170    0.0000 N   0  0  0  0  0  0  0  0  0  0  0  0
   14.7554  -12.5420    0.0000 N   0  0  0  0  0  0  0  0  0  0  0  0
   16.1842  -11.7170    0.0000 O   0  0  0  0  0  0  0  0  0  0  0  0
   11.1830  -11.3045    0.0000 C   0  0  0  0  0  0  0  0  0  0  0  0
  2  1  1  0
  2  7  2  0
  2  8  1  0
  3  6  2  0
 10  3  1  0
  3  4  1  0
  4  9  1  1
  5  1  1  0
  4  5  1  0
 11  8  1  0
V   10 *
M  END
>  <ChEBI ID>  (19) 
CHEBI:61891

>  <ChEBI Name>  (19) 
N(5)-methyl-L-glutamine residue

>  <Star>  (19) 
3

>  <Definition>  (19) 
An alpha-amino-acid residue formed from N(5)-methyl-L-glutamine.

>  <SMILES>  (19) 
C(C(=O)NC)C[C@@H](C(=O)*)N*

>  <Formulae>  (19) 
C6H10N2O2

>  <Charge>  (19) 
0

>  <Mass>  (19) 
142.15580

>  <Monoisotopic Mass>  (19) 
142.07423

>  <Synonyms>  (19) 
N(5)-methyl-L-glutamine residue
N(5)-methyl-L-glutaminyl

>  <PubChem Database Links>  (19) 
SID: 121270187

>  <Rhea Database Links>  (19) 
RHEA:57452
RHEA:43228
RHEA:42896
RHEA:45020
RHEA:50904

>  <Last Modified>  (19) 
27 Jul 2015

$$$$

     RDKit          2D

 14 13  0  0  1  0  0  0  0  0999 V2000
   10.3993  -13.5144    0.0000 C   0  0  0  0  0  0  0  0  0  0  0  0
    9.5334  -14.0144    0.0000 N   0  0  0  0  0  0  0  0  0  0  0  0
   12.9973  -14.0144    0.0000 C   0  0  0  0  0  0  0  0  0  0  0  0
   12.1315  -13.5144    0.0000 C   0  0  0  0  0  0  0  0  0  0  0  0
   11.2653  -14.0144    0.0000 C   0  0  0  0  0  0  0  0  0  0  0  0
    8.6673  -13.5144    0.0000 C   0  0  0  0  0  0  0  0  0  0  0  0
   13.8634  -13.5144    0.0000 C   0  0  0  0  0  0  0  0  0  0  0  0
    8.6673  -12.5144    0.0000 N   0  0  0  0  0  0  0  0  0  0  0  0
   13.8634  -12.5144    0.0000 O   0  0  0  0  0  0  0  0  0  0  0  0
    7.8012  -14.0144    0.0000 N   0  0  0  0  0  0  0  0  0  0  0  0
   12.9973  -15.0143    0.0000 N   0  0  0  0  0  0  0  0  0  0  0  0
   14.7295  -14.0144    0.0000 O   0  0  0  0  0  0  0  0  0  0  0  0
    7.8012  -15.0143    0.0000 C   0  0  0  0  0  0  0  0  0  0  0  0
    6.9353  -13.5144    0.0000 C   0  0  0  0  0  0  0  0  0  0  0  0
  2  1  1  0
  6  2  1  0
  7  3  1  0
  3 11  1  1
  3  4  1  0
  1  5  1  0
  4  5  1  0
  6  8  2  0
  6 10  1  0
  7  9  2  0
 12  7  1  0
 13 10  1  0
 14 10  1  0
V   12 *
M  END
>  <ChEBI ID>  (20) 
CHEBI:61897

>  <ChEBI Name>  (20) 
N(omega),N(omega)-dimethyl-L-arginine(1+) residue

>  <Star>  (20) 
3

>  <Definition>  (20) 
An alpha-amino-acid residue cation resulting from the protonation of the imine nitrogen of N(omega),N(omega)-dimethyl-L-arginine residue.

>  <SMILES>  (20) 
C(NC(=[NH2+])N(C)C)CC[C@@H](C(=O)*)N*

>  <Formulae>  (20) 
C8H17N4O

>  <Charge>  (20) 
+1

>  <Mass>  (20) 
185.247

>  <Monoisotopic Mass>  (20) 
185.14024

>  <Synonyms>  (20) 
N(5)-((dimethylamino)iminomethyl)-L-ornithine residue(1+)
N(5)-((dimethylamino)iminomethyl)-L-ornithine(1+) residue
N(5)-(N,N-dimethylcarbamimidoyl)-L-ornithine residue(1+)
N(5)-(N,N-dimethylcarbamimidoyl)-L-ornithine(1+) residue
N(5)-[(dimethylamino)(imino)methyl]-L-ornithine residue(1+)
N(G),N(G)-dimethylarginine residue(1+)
N(G),N(G)-dimethylarginine(1+) residue
N(G)-dimethylarginine residue(1+)
N(G)-dimethylarginine(1+) residue
N(G1),N(G1)-dimethylarginine residue(1+)
N(G1),N(G1)-dimethylarginine(1+) residue
N(omega),N(omega)-dimethyl-L-arginine residue
N(omega),N(omega)-dimethyl-L-arginine residue(1+)
N,N-dimethylarginine residue(1+)
N,N-dimethylarginine(1+) residue
asymmetric dimethylarginine residue(1+)
asymmetric dimethylarginine(1+) residue
guanidino-N,N-dimethylarginine residue(1+)
guanidino-N,N-dimethylarginine(1+) residue

>  <PubChem Database Links>  (20) 
SID: 121270036

>  <Rhea Database Links>  (20) 
RHEA:58352
RHEA:48104
RHEA:48096
RHEA:58468

>  <Last Modified>  (20) 
15 Oct 2015

$$$$

     RDKit          2D

 17 18  0  0  1  0  0  0  0  0999 V2000
    8.6699  -15.1305    0.0000 C   0  0  0  0  0  0  0  0  0  0  0  0
    7.7848  -16.1163    0.0000 N   0  0  0  0  0  0  0  0  0  0  0  0
    8.5693  -15.9352    0.0000 C   0  0  0  0  0  0  0  0  0  0  0  0
    7.9055  -14.8087    0.0000 C   0  0  0  0  0  0  0  0  0  0  0  0
   10.8023  -14.7081    0.0000 C   0  0  0  0  0  0  0  0  0  0  0  0
    9.3539  -14.7081    0.0000 C   0  0  0  0  0  0  0  0  0  0  0  0
    7.3623  -15.4122    0.0000 C   0  0  0  0  0  0  0  0  0  0  0  0
   10.0781  -15.1104    0.0000 C   0  0  0  0  0  0  0  0  0  0  0  0
   11.5099  -15.1323    0.0000 O   0  0  0  0  0  0  0  0  0  0  0  0
   10.0781  -15.9352    0.0000 N   0  0  0  0  0  0  0  0  0  0  0  0
   10.8159  -13.8832    0.0000 O   0  0  0  0  0  0  0  0  0  0  0  0
    7.6238  -14.0040    0.0000 C   0  0  0  0  0  0  0  0  0  0  0  0
    6.5375  -15.2512    0.0000 C   0  0  0  0  0  0  0  0  0  0  0  0
    6.8192  -13.8632    0.0000 C   0  0  0  0  0  0  0  0  0  0  0  0
    6.2760  -14.4868    0.0000 C   0  0  0  0  0  0  0  0  0  0  0  0
    5.4714  -14.3259    0.0000 Br  0  0  0  0  0  0  0  0  0  0  0  0
   12.2244  -14.7198    0.0000 *   0  0  0  0  0  0  0  0  0  0  0  0
  3  1  2  0
  4  1  1  0
  6  1  1  0
  3  2  1  0
  7  2  1  0
  7  4  2  0
 12  4  1  0
  8  5  1  0
  9  5  1  0
 11  5  2  0
  8  6  1  0
 13  7  1  0
  8 10  1  1
 14 12  2  0
 15 13  2  0
 15 14  1  0
 16 15  1  0
  9 17  1  0
V   17 *
M  END
>  <ChEBI ID>  (21) 
CHEBI:61899

>  <ChEBI Name>  (21) 
L-6'-bromotryptophan residue

>  <Star>  (21) 
3

>  <Definition>  (21) 
An alpha-amino-acid residue derived from L-6'-bromotryptophan.

>  <SMILES>  (21) 
C1(=CNC2=C1C=CC(=C2)Br)C[C@@H](C(O*)=O)N*

>  <Formulae>  (21) 
C11H9BrN2O2

>  <Charge>  (21) 
0

>  <Mass>  (21) 
281.10500

>  <Monoisotopic Mass>  (21) 
279.98474

>  <Synonyms>  (21) 
6-bromo-L-tryptophan residue
L-6'-bromotryptophan residue

>  <PubChem Database Links>  (21) 
SID: 121270038

>  <Last Modified>  (21) 
04 Jun 2019

$$$$

     RDKit          2D

 11 10  0  0  1  0  0  0  0  0999 V2000
    9.1402   -5.1452    0.0000 C   0  0  0  0  0  0  0  0  0  0  0  0
    8.4270   -5.5599    0.0000 C   0  0  0  0  0  0  0  0  0  0  0  0
    9.1402   -4.3325    0.0000 O   0  0  0  0  0  0  0  0  0  0  0  0
    8.4435   -6.3726    0.0000 N   0  0  0  0  0  0  0  0  0  0  0  0
    4.8774   -5.1452    0.0000 N   0  0  0  0  0  0  0  0  0  0  0  0
    5.5906   -5.5434    0.0000 C   0  0  0  0  0  0  0  0  0  0  0  0
    7.7303   -5.1452    0.0000 C   0  0  0  0  0  0  0  0  0  0  0  0
    6.3038   -5.1452    0.0000 C   0  0  0  0  0  0  0  0  0  0  0  0
    7.0171   -5.5599    0.0000 C   0  0  0  0  0  0  0  0  0  0  0  0
    4.1690   -5.5681    0.0000 C   0  0  0  0  0  0  0  0  0  0  0  0
    9.8547   -5.5577    0.0000 O   0  0  0  0  0  0  0  0  0  0  0  0
  2  1  1  0
  3  1  2  0
  2  4  1  1
  2  7  1  0
  6  5  1  0
  8  6  1  0
  9  7  1  0
  9  8  1  0
  5 10  1  0
  1 11  1  0
V   11 *
M  END
>  <ChEBI ID>  (22) 
CHEBI:61929

>  <ChEBI Name>  (22) 
N(6)-methyl-L-lysinium residue

>  <Star>  (22) 
3

>  <Definition>  (22) 
An alpha-amino-acid residue cation resulting from the protonation of the N(6) nitrogen of N(6)-methyl-L-lysine residue

>  <SMILES>  (22) 
C([C@@H](N*)CCCC[NH2+]C)(=O)*

>  <Formulae>  (22) 
C7H15N2O

>  <Charge>  (22) 
+1

>  <Mass>  (22) 
143.20680

>  <Monoisotopic Mass>  (22) 
143.11844

>  <Synonyms>  (22) 
N(6)-methyl-L-lysine residue
N(6)-methyl-L-lysine residue(1+)
N(6)-methyl-L-lysine(1+) residue

>  <PubChem Database Links>  (22) 
SID: 124349251

>  <Rhea Database Links>  (22) 
RHEA:55548
RHEA:55544
RHEA:60344
RHEA:60216
RHEA:21788
RHEA:67808
RHEA:60924
RHEA:60336
RHEA:60348
RHEA:60220
RHEA:60300
RHEA:21696
RHEA:67112
RHEA:21556
RHEA:60224
RHEA:60312
RHEA:10784
RHEA:60280
RHEA:60236
RHEA:60284
RHEA:60332
RHEA:60200
RHEA:59268
RHEA:60232
RHEA:67116
RHEA:67832
RHEA:60264
RHEA:60296
RHEA:60196
RHEA:33451
RHEA:54196
RHEA:51736
RHEA:67804
RHEA:60192
RHEA:60256
RHEA:60316
RHEA:61948
RHEA:60268
RHEA:10024
RHEA:24312
RHEA:60248

>  <Last Modified>  (22) 
20 Jul 2012

$$$$

     RDKit          2D

 12 12  0  0  1  0  0  0  0  0999 V2000
   12.1167   -6.2480    0.0000 C   0  0  0  0  0  0  0  0  0  0  0  0
   11.4022   -6.6605    0.0000 C   0  0  0  0  0  0  0  0  0  0  0  0
   10.6878   -6.2480    0.0000 C   0  0  0  0  0  0  0  0  0  0  0  0
   12.8312   -6.6605    0.0000 N   0  0  0  0  0  0  0  0  0  0  0  0
   12.1167   -5.4230    0.0000 O   0  0  0  0  0  0  0  0  0  0  0  0
   11.4022   -7.4854    0.0000 N   0  0  0  0  0  0  0  0  0  0  0  0
    9.9733   -6.6605    0.0000 C   0  0  0  0  0  0  0  0  0  0  0  0
    9.9733   -7.4855    0.0000 C   0  0  0  0  0  0  0  0  0  0  0  0
    9.2588   -6.2480    0.0000 C   0  0  0  0  0  0  0  0  0  0  0  0
    9.2588   -7.8980    0.0000 C   0  0  0  0  0  0  0  0  0  0  0  0
    8.5443   -6.6605    0.0000 C   0  0  0  0  0  0  0  0  0  0  0  0
    8.5443   -7.4855    0.0000 C   0  0  0  0  0  0  0  0  0  0  0  0
  2  1  1  0
  5  1  2  0
  4  1  1  0
  2  3  1  0
  2  6  1  1
  7  3  1  0
  8  7  2  0
  9  7  1  0
 10  8  1  0
 11  9  2  0
 12 10  2  0
 12 11  1  0
M  END
>  <ChEBI ID>  (23) 
CHEBI:61957

>  <ChEBI Name>  (23) 
L-phenylalanine amide group

>  <Star>  (23) 
3

>  <Definition>  (23) 
An alkylamino group derived from L-phenylalanine amide.

>  <SMILES>  (23) 
C([C@H](CC=1C=CC=CC1)N*)(=O)N

>  <Formulae>  (23) 
C9H11N2O

>  <Charge>  (23) 
0

>  <Mass>  (23) 
163.19640

>  <Monoisotopic Mass>  (23) 
163.08714

>  <Synonyms>  (23) 
C-terminal L-phenylalanine amide residue
L-phenylalaninamide group
phenylalaninamide group
phenylalanine amide group

>  <PubChem Database Links>  (23) 
SID: 121270071

>  <Last Modified>  (23) 
16 Jan 2020

$$$$

     RDKit          2D

 13 12  0  0  1  0  0  0  0  0999 V2000
   14.4693   -5.4058    0.0000 O   0  0  0  0  0  0  0  0  0  0  0  0
   13.6033   -4.9059    0.0000 C   0  0  0  0  0  0  0  0  0  0  0  0
   13.6033   -3.9058    0.0000 O   0  0  0  0  0  0  0  0  0  0  0  0
   12.7373   -5.4059    0.0000 C   0  0  0  0  0  0  0  0  0  0  0  0
   12.7373   -6.4059    0.0000 N   0  0  0  0  0  0  0  0  0  0  0  0
   11.8713   -4.9058    0.0000 C   0  0  0  0  0  0  0  0  0  0  0  0
   11.0052   -5.4058    0.0000 C   0  0  0  0  0  0  0  0  0  0  0  0
   10.1393   -4.9057    0.0000 C   0  0  0  0  0  0  0  0  0  0  0  0
    9.2732   -5.4057    0.0000 C   0  0  0  0  0  0  0  0  0  0  0  0
    8.4072   -4.9057    0.0000 N   0  0  0  0  0  0  0  0  0  0  0  0
    7.5411   -5.4056    0.0000 C   0  0  0  0  0  0  0  0  0  0  0  0
    8.4073   -3.9057    0.0000 C   0  0  0  0  0  0  0  0  0  0  0  0
    7.5412   -4.4057    0.0000 C   0  0  0  0  0  0  0  0  0  0  0  0
  2  1  1  0
  3  2  2  0
  4  2  1  0
  4  5  1  1
  4  6  1  0
  7  6  1  0
  8  7  1  0
  9  8  1  0
 10  9  1  0
 10 11  1  0
 10 12  1  0
 10 13  1  0
V    1 *
M  END
>  <ChEBI ID>  (24) 
CHEBI:61961

>  <ChEBI Name>  (24) 
N(6),N(6),N(6)-trimethyl-L-lysine residue

>  <Star>  (24) 
3

>  <Definition>  (24) 
An alpha-amino-acid residue cation derived from N(6),N(6),N(6)-trimethyl-L-lysine.

>  <SMILES>  (24) 
*C(=O)[C@@H](N*)CCCC[N+](C)(C)C

>  <Formulae>  (24) 
C9H19N2O

>  <Charge>  (24) 
+1

>  <Mass>  (24) 
171.260

>  <Monoisotopic Mass>  (24) 
171.14974

>  <Synonyms>  (24) 
N(6),N(6),N(6)-trimethyl-L-lysine residue
epsilon-N-trimethyl-L-lysine residue
epsilon-trimethyl-L-lysine residue
epsilon-trimethyllysine residue

>  <PubChem Database Links>  (24) 
SID: 121270074

>  <Rhea Database Links>  (24) 
RHEA:60272
RHEA:60328
RHEA:54200
RHEA:55552
RHEA:60304
RHEA:50996
RHEA:60324
RHEA:61952
RHEA:51000
RHEA:67120
RHEA:60208
RHEA:60276
RHEA:60240
RHEA:60260
RHEA:64456
RHEA:60200
RHEA:60224
RHEA:60204
RHEA:54192
RHEA:21840
RHEA:60320
RHEA:61992
RHEA:60340
RHEA:67108
RHEA:60236
RHEA:60288
RHEA:60228
RHEA:60292
RHEA:60212

>  <Last Modified>  (24) 
09 Nov 2016

$$$$

     RDKit          2D

  8  7  0  0  1  0  0  0  0  0999 V2000
   11.9256   -5.6282    0.0000 C   0  0  0  0  0  0  0  0  0  0  0  0
   11.2111   -6.0407    0.0000 C   0  0  0  0  0  0  0  0  0  0  0  0
   10.4967   -5.6282    0.0000 C   0  0  0  0  0  0  0  0  0  0  0  0
   12.6400   -6.0407    0.0000 O   0  0  0  0  0  0  0  0  0  0  0  0
   11.9256   -4.8032    0.0000 O   0  0  0  0  0  0  0  0  0  0  0  0
   11.2111   -6.8656    0.0000 N   0  0  0  0  0  0  0  0  0  0  0  0
    9.7822   -6.0407    0.0000 S   0  0  0  0  0  0  0  0  0  0  0  0
    9.0677   -5.6282    0.0000 S   0  0  0  0  0  0  0  0  0  0  0  0
  2  1  1  0
  5  1  2  0
  4  1  1  0
  2  3  1  0
  2  6  1  1
  7  3  1  0
  7  8  1  0
V    4 *
M  END
>  <ChEBI ID>  (25) 
CHEBI:61963

>  <ChEBI Name>  (25) 
3-disulfanyl-L-alanine residue

>  <Star>  (25) 
3

>  <Definition>  (25) 
An alpha-amino-acid residue derived from 3-disulfanyl-L-alanine.

>  <SMILES>  (25) 
C([C@H](CSS)N*)(=O)*

>  <Formulae>  (25) 
C3H5NOS2

>  <Charge>  (25) 
0

>  <Mass>  (25) 
135.20800

>  <Monoisotopic Mass>  (25) 
134.98126

>  <Synonyms>  (25) 
3-disulfanylalanine residue
S-sulfanyl-L-cysteine residue
thiocysteine residue

>  <PubChem Database Links>  (25) 
SID: 121270076

>  <Rhea Database Links>  (25) 
RHEA:56296
RHEA:47016
RHEA:17457
RHEA:47012
RHEA:47024
RHEA:24176
RHEA:47032
RHEA:56300
RHEA:47040
RHEA:47020
RHEA:57048
RHEA:43340
RHEA:48612
RHEA:48264
RHEA:43888
RHEA:51224

>  <Last Modified>  (25) 
27 Jul 2015

$$$$

     RDKit          2D

  9  9  0  0  1  0  0  0  0  0999 V2000
   11.9560   -9.0965    0.0000 C   0  0  0  0  0  0  0  0  0  0  0  0
   11.2975   -9.5771    0.0000 C   0  0  0  0  0  0  0  0  0  0  0  0
   12.6257   -9.5771    0.0000 N   0  0  0  0  0  0  0  0  0  0  0  0
   11.9560   -8.2753    0.0000 C   0  0  0  0  0  0  0  0  0  0  0  0
   11.5472  -10.3641    0.0000 C   0  0  0  0  0  0  0  0  0  0  0  0
   12.3722  -10.3641    0.0000 C   0  0  0  0  0  0  0  0  0  0  0  0
   12.6696   -7.8615    0.0000 O   0  0  0  0  0  0  0  0  0  0  0  0
   11.2370   -7.8667    0.0000 O   0  0  0  0  0  0  0  0  0  0  0  0
   11.0591  -11.0301    0.0000 O   0  0  0  0  0  0  0  0  0  0  0  0
  1  2  1  0
  1  3  1  0
  1  4  1  1
  2  5  1  0
  3  6  1  0
  4  7  1  0
  4  8  2  0
  5  9  1  6
  5  6  1  0
V    7 *
M  END
>  <ChEBI ID>  (26) 
CHEBI:61965

>  <ChEBI Name>  (26) 
trans-4-hydroxy-L-proline residue

>  <Star>  (26) 
3

>  <Definition>  (26) 
An alpha-amino-acid residue derived from trans-4-hydroxy-L-proline.

>  <SMILES>  (26) 
[C@H]1(C[C@@H](O)CN1*)C(*)=O

>  <Formulae>  (26) 
C5H7NO2

>  <Charge>  (26) 
0

>  <Mass>  (26) 
113.11460

>  <Monoisotopic Mass>  (26) 
113.04768

>  <Synonyms>  (26) 
hydroxyproline residue
trans-4-hydroxy-L-proline residue

>  <PubChem Database Links>  (26) 
SID: 121270078

>  <Rhea Database Links>  (26) 
RHEA:48400
RHEA:49472
RHEA:63484
RHEA:18945
RHEA:48936
RHEA:17841

>  <Last Modified>  (26) 
27 Jul 2015

$$$$

     RDKit          2D

  8  7  0  0  1  0  0  0  0  0999 V2000
   14.4215   -5.6882    0.0000 C   0  0  0  0  0  0  0  0  0  0  0  0
   13.7070   -6.1008    0.0000 C   0  0  0  0  0  0  0  0  0  0  0  0
   12.9926   -5.6882    0.0000 C   0  0  0  0  0  0  0  0  0  0  0  0
   15.1360   -6.1008    0.0000 O   0  0  0  0  0  0  0  0  0  0  0  0
   14.4215   -4.8632    0.0000 O   0  0  0  0  0  0  0  0  0  0  0  0
   13.7070   -6.9258    0.0000 N   0  0  0  0  0  0  0  0  0  0  0  0
   12.2780   -6.1008    0.0000 S   0  0  0  0  0  0  0  0  0  0  0  0
   11.5635   -5.6882    0.0000 O   0  0  0  0  0  0  0  0  0  0  0  0
  2  1  1  0
  5  1  2  0
  4  1  1  0
  2  3  1  0
  2  6  1  1
  7  3  1  0
  7  8  1  0
V    4 *
M  END
>  <ChEBI ID>  (27) 
CHEBI:61973

>  <ChEBI Name>  (27) 
S-hydroxy-L-cysteine residue

>  <Star>  (27) 
3

>  <Definition>  (27) 
An alpha-amino-acid residue derived from S-hydroxy-L-cysteine.

>  <SMILES>  (27) 
C([C@H](CSO)N*)(=O)*

>  <Formulae>  (27) 
C3H5NO2S

>  <Charge>  (27) 
0

>  <Mass>  (27) 
119.14200

>  <Monoisotopic Mass>  (27) 
119.00410

>  <Synonyms>  (27) 
S-hydroxy-L-cysteine residue
S-hydroxycysteine residue

>  <PubChem Database Links>  (27) 
SID: 121270083

>  <Rhea Database Links>  (27) 
RHEA:67124
RHEA:17545

>  <Last Modified>  (27) 
25 Aug 2017

$$$$

     RDKit          2D

  9  8  0  0  1  0  0  0  0  0999 V2000
   13.3075   -5.6615    0.0000 C   0  0  0  0  0  0  0  0  0  0  0  0
   12.5930   -5.2490    0.0000 C   0  0  0  0  0  0  0  0  0  0  0  0
   14.0220   -5.2490    0.0000 C   0  0  0  0  0  0  0  0  0  0  0  0
   13.3075   -6.4864    0.0000 N   0  0  0  0  0  0  0  0  0  0  0  0
   11.8786   -5.6615    0.0000 S   0  0  0  0  0  0  0  0  0  0  0  0
   14.0220   -4.4240    0.0000 O   0  0  0  0  0  0  0  0  0  0  0  0
   14.7364   -5.6615    0.0000 O   0  0  0  0  0  0  0  0  0  0  0  0
   11.8786   -6.4864    0.0000 O   0  0  0  0  0  0  0  0  0  0  0  0
   11.1641   -5.2490    0.0000 O   0  0  0  0  0  0  0  0  0  0  0  0
  1  2  1  0
  1  3  1  0
  1  4  1  1
  2  5  1  0
  3  6  2  0
  3  7  1  0
  5  8  2  0
  9  5  1  0
V    7 *
M  END
>  <ChEBI ID>  (28) 
CHEBI:61974

>  <ChEBI Name>  (28) 
3-sulfino-L-alanine(1-) residue

>  <Star>  (28) 
3

>  <Definition>  (28) 
An alpha-amino-acid residue anion derived from 3-sulfino-L-alanine(1-).

>  <SMILES>  (28) 
[C@H](CS(=O)[O-])(C(=O)*)N*

>  <Formulae>  (28) 
C3H4NO3S

>  <Charge>  (28) 
-1

>  <Mass>  (28) 
134.13400

>  <Monoisotopic Mass>  (28) 
133.99119

>  <Synonyms>  (28) 
S-hydroxy-S-oxo-L-cysteine residue

>  <PubChem Database Links>  (28) 
SID: 121270084

>  <Last Modified>  (28) 
10 Mar 2022

$$$$

     RDKit          2D

 11 10  0  0  1  0  0  0  0  0999 V2000
   13.5727   -5.4290    0.0000 C   0  0  0  0  0  0  0  0  0  0  0  0
   12.8581   -5.8415    0.0000 C   0  0  0  0  0  0  0  0  0  0  0  0
   12.1438   -5.4290    0.0000 C   0  0  0  0  0  0  0  0  0  0  0  0
   14.2872   -5.8415    0.0000 O   0  0  0  0  0  0  0  0  0  0  0  0
   13.5727   -4.6040    0.0000 O   0  0  0  0  0  0  0  0  0  0  0  0
   12.8581   -6.6664    0.0000 N   0  0  0  0  0  0  0  0  0  0  0  0
   11.4292   -5.8415    0.0000 S   0  0  0  0  0  0  0  0  0  0  0  0
   10.7147   -5.4290    0.0000 P   0  0  0  0  0  0  0  0  0  0  0  0
   10.0004   -5.8414    0.0000 O   0  0  0  0  0  0  0  0  0  0  0  0
   10.7148   -4.6040    0.0000 O   0  0  0  0  0  0  0  0  0  0  0  0
   10.5013   -6.2258    0.0000 O   0  0  0  0  0  0  0  0  0  0  0  0
  2  1  1  0
  5  1  2  0
  4  1  1  0
  2  3  1  0
  2  6  1  1
  7  3  1  0
  7  8  1  0
  8  9  1  0
  8 10  2  0
  8 11  1  0
V    4 *
M  END
>  <ChEBI ID>  (29) 
CHEBI:61975

>  <ChEBI Name>  (29) 
S-phospho-L-cysteine(2-) residue

>  <Star>  (29) 
3

>  <Definition>  (29) 
An alpha-amino-acid residue anion derived from S-phospho-L-cysteine(2-).

>  <SMILES>  (29) 
CN[C@@H](CSP([O-])([O-])=O)C(C)=O

>  <Formulae>  (29) 
C3H4NO4PS

>  <Charge>  (29) 
-2

>  <Mass>  (29) 
211.17600

>  <Monoisotopic Mass>  (29) 
180.95987

>  <Synonyms>  (29) 
S-phospho-L-cysteine residue

>  <PubChem Database Links>  (29) 
SID: 121270085

>  <Last Modified>  (29) 
15 Jan 2020

$$$$

     RDKit          2D

 12 11  0  0  1  0  0  0  0  0999 V2000
    9.7192   -5.1752    0.0000 C   0  0  0  0  0  0  0  0  0  0  0  0
   10.4369   -4.7683    0.0000 C   0  0  0  0  0  0  0  0  0  0  0  0
   11.1481   -5.1866    0.0000 C   0  0  0  0  0  0  0  0  0  0  0  0
   13.3078   -4.7682    0.0000 C   0  0  0  0  0  0  0  0  0  0  0  0
   14.0255   -5.1750    0.0000 O   0  0  0  0  0  0  0  0  0  0  0  0
   12.5901   -5.1750    0.0000 C   0  0  0  0  0  0  0  0  0  0  0  0
   13.3078   -3.9548    0.0000 O   0  0  0  0  0  0  0  0  0  0  0  0
    9.0015   -4.7683    0.0000 N   0  0  0  0  0  0  0  0  0  0  0  0
   11.8963   -4.7683    0.0000 C   0  0  0  0  0  0  0  0  0  0  0  0
   12.5840   -6.0000    0.0000 N   0  0  0  0  0  0  0  0  0  0  0  0
    8.9948   -3.9434    0.0000 C   0  0  0  0  0  0  0  0  0  0  0  0
    8.2904   -5.1866    0.0000 C   0  0  0  0  0  0  0  0  0  0  0  0
  1  8  1  0
  2  1  1  0
  3  2  1  0
  3  9  1  0
  5  4  1  0
  6  4  1  0
  7  4  2  0
  6  9  1  0
  6 10  1  1
  8 11  1  0
  8 12  1  0
V    5 *
M  END
>  <ChEBI ID>  (30) 
CHEBI:61976

>  <ChEBI Name>  (30) 
N(6),N(6)-dimethyl-L-lysine(1+) residue

>  <Star>  (30) 
3

>  <Definition>  (30) 
An alpha-amino-acid residue cation derived from N(6),N(6)-dimethyl-L-lysine(1+).

>  <SMILES>  (30) 
C([NH+](C)C)CCC[C@@H](C(*)=O)N*

>  <Formulae>  (30) 
C8H17N2O

>  <Charge>  (30) 
+1

>  <Mass>  (30) 
157.23340

>  <Monoisotopic Mass>  (30) 
157.13409

>  <Synonyms>  (30) 
N(6),N(6)-dimethyl-L-lysine residue

>  <PubChem Database Links>  (30) 
SID: 121270086

>  <Rhea Database Links>  (30) 
RHEA:60336
RHEA:60316
RHEA:67116
RHEA:60216
RHEA:60240
RHEA:42032
RHEA:60348
RHEA:54200
RHEA:60340
RHEA:67800
RHEA:21696
RHEA:64444
RHEA:33451
RHEA:60272
RHEA:60228
RHEA:60248
RHEA:64452
RHEA:55548
RHEA:64448
RHEA:60308
RHEA:60192
RHEA:67120
RHEA:60232
RHEA:60284
RHEA:61992
RHEA:21788
RHEA:60244
RHEA:60288
RHEA:21840
RHEA:60268
RHEA:54196
RHEA:55552
RHEA:61948
RHEA:61952
RHEA:60300
RHEA:60304
RHEA:60204
RHEA:60212
RHEA:60320
RHEA:60188

>  <Last Modified>  (30) 
24 May 2011

$$$$

     RDKit          2D

 12 11  0  0  1  0  0  0  0  0999 V2000
   12.6041   -4.6176    0.0000 C   0  0  0  0  0  0  0  0  0  0  0  0
   11.8902   -5.0172    0.0000 C   0  0  0  0  0  0  0  0  0  0  0  0
   11.1765   -4.6033    0.0000 C   0  0  0  0  0  0  0  0  0  0  0  0
   11.1907   -3.7752    0.0000 C   0  0  0  0  0  0  0  0  0  0  0  0
   13.3240   -5.0207    0.0000 O   0  0  0  0  0  0  0  0  0  0  0  0
   11.8902   -5.8311    0.0000 N   0  0  0  0  0  0  0  0  0  0  0  0
   12.6183   -3.7752    0.0000 O   0  0  0  0  0  0  0  0  0  0  0  0
   10.4769   -5.0030    0.0000 O   0  0  0  0  0  0  0  0  0  0  0  0
    9.7631   -4.6033    0.0000 P   0  0  0  0  0  0  0  0  0  0  0  0
    9.3492   -5.3170    0.0000 O   0  0  0  0  0  0  0  0  0  0  0  0
    9.0350   -4.1894    0.0000 O   0  0  0  0  0  0  0  0  0  0  0  0
   10.1628   -3.8753    0.0000 O   0  0  0  0  0  0  0  0  0  0  0  0
  1  2  1  0
  3  2  1  0
  2  6  1  1
  5  1  1  0
  7  1  2  0
  8  3  1  0
  3  4  1  6
  9  8  1  0
 11  9  1  0
 12  9  1  0
 10  9  2  0
V    5 *
M  END
>  <ChEBI ID>  (31) 
CHEBI:61977

>  <ChEBI Name>  (31) 
O-phosphonato-L-threonine(2-) residue

>  <Star>  (31) 
3

>  <Definition>  (31) 
An alpha-amino-acid residue anion derived from O-phosphonato-L-threonine(2-).

>  <SMILES>  (31) 
C[C@@H](OP([O-])([O-])=O)[C@H](N-*)C(-*)=O

>  <Formulae>  (31) 
C4H6NO5P

>  <Charge>  (31) 
-2

>  <Mass>  (31) 
179.06900

>  <Monoisotopic Mass>  (31) 
178.99836

>  <Synonyms>  (31) 
O-phospho-L-threonine residue

>  <PubChem Database Links>  (31) 
SID: 124403752

>  <Rhea Database Links>  (31) 
RHEA:53988
RHEA:43692
RHEA:46608
RHEA:56924
RHEA:53900
RHEA:11424
RHEA:53920
RHEA:53904
RHEA:47004
RHEA:44880
RHEA:56552
RHEA:43696

>  <Last Modified>  (31) 
06 Nov 2014

$$$$

     RDKit          2D

  8  7  0  0  1  0  0  0  0  0999 V2000
   11.0797   -6.8721    0.0000 C   0  0  0  0  0  0  0  0  0  0  0  0
   10.3577   -7.2743    0.0000 C   0  0  0  0  0  0  0  0  0  0  0  0
   11.1003   -6.0575    0.0000 O   0  0  0  0  0  0  0  0  0  0  0  0
   10.3577   -8.0993    0.0000 N   0  0  0  0  0  0  0  0  0  0  0  0
   11.7912   -7.2949    0.0000 O   0  0  0  0  0  0  0  0  0  0  0  0
    9.6462   -6.8721    0.0000 C   0  0  0  0  0  0  0  0  0  0  0  0
   12.5130   -6.9030    0.0000 C   0  0  0  0  0  0  0  0  0  0  0  0
    8.9292   -7.2872    0.0000 S   0  0  0  0  0  0  0  0  0  0  0  0
  2  1  1  0
  3  1  2  0
  5  1  1  0
  2  4  1  1
  2  6  1  0
  7  5  1  0
  6  8  1  0
M  END
>  <ChEBI ID>  (32) 
CHEBI:61989

>  <ChEBI Name>  (32) 
methyl L-cysteinato group

>  <Star>  (32) 
3

>  <Definition>  (32) 
An alkylamino group derived from methyl L-cysteinate.

>  <SMILES>  (32) 
C([C@@H](N*)CS)(=O)OC

>  <Formulae>  (32) 
C4H8NO2S

>  <Charge>  (32) 
0

>  <Mass>  (32) 
134.17700

>  <Monoisotopic Mass>  (32) 
134.02757

>  <Synonyms>  (32) 
C-terminal L-cysteine methyl ester residue
methyl L-cysteinate group
methyl L-cysteinate residue

>  <PubChem Database Links>  (32) 
SID: 121270095

>  <Last Modified>  (32) 
15 Jan 2020

$$$$
ChEBI
     RDKit          2D

 15 15  0  0  1  0  0  0  0  0999 V2000
   20.7248   -9.4067    0.0000 C   0  0  0  0  0  0  0  0  0  0  0  0
   21.3379   -9.9588    0.0000 O   0  0  0  0  0  0  0  0  0  0  0  0
   19.9402   -9.6617    0.0000 C   0  0  0  0  0  0  0  0  0  0  0  0
   19.7687  -10.4686    0.0000 N   0  0  0  0  0  0  0  0  0  0  0  0
   19.3271   -9.1096    0.0000 C   0  0  0  0  0  0  0  0  0  0  0  0
   18.5425   -9.3646    0.0000 C   0  0  0  0  0  0  0  0  0  0  0  0
   17.8751   -8.8797    0.0000 N   0  0  0  0  0  0  0  0  0  0  0  0
   18.2876  -10.1492    0.0000 C   0  0  0  0  0  0  0  0  0  0  0  0
   17.2076   -9.3646    0.0000 C   0  0  0  0  0  0  0  0  0  0  0  0
   17.4626  -10.1492    0.0000 N   0  0  0  0  0  0  0  0  0  0  0  0
   20.8964   -8.5998    0.0000 O   0  0  0  0  0  0  0  0  0  0  0  0
   17.8751   -8.0547    0.0000 P   0  0  0  0  0  0  0  0  0  0  0  0
   17.8751   -7.2297    0.0000 O   0  0  0  0  0  0  0  0  0  0  0  0
   18.7001   -8.0547    0.0000 O   0  0  0  0  0  0  0  0  0  0  0  0
   17.0501   -8.0547    0.0000 O   0  0  0  0  0  0  0  0  0  0  0  0
  1 11  1  0
  2  1  2  0
  3  1  1  0
  3  4  1  1
  3  5  1  0
  7  6  1  0
  8  6  2  0
  9  7  1  0
 10  8  1  0
  9 10  2  0
  6  5  1  0
  7 12  1  0
 12 13  1  0
 12 14  2  0
 12 15  1  0
V   11 *
M  END
>  <ChEBI ID>  (33) 
CHEBI:64837

>  <ChEBI Name>  (33) 
N(pros)-phosphonato-L-histidine residue

>  <Star>  (33) 
3

>  <Definition>  (33) 
An anionic amino-acid residue formed by loss of both protons from the phospho group of an N(pros)-phospho-L-histidine residue, the principal form present at pH 7.3.

>  <SMILES>  (33) 
C(*)(=O)[C@@H](N*)CC=1N(C=NC1)P([O-])(=O)[O-]

>  <Formulae>  (33) 
C6H6N3O4P

>  <Charge>  (33) 
-2

>  <Mass>  (33) 
215.10330

>  <Monoisotopic Mass>  (33) 
215.00959

>  <Synonyms>  (33) 
N(pros)-phospho-L-histidine residue

>  <PubChem Database Links>  (33) 
SID: 136349143

>  <Rhea Database Links>  (33) 
RHEA:49236
RHEA:42400
RHEA:23880
RHEA:37359
RHEA:47964
RHEA:49260
RHEA:33399
RHEA:49256
RHEA:49300
RHEA:49232
RHEA:33371
RHEA:66784
RHEA:49252
RHEA:22720
RHEA:33363
RHEA:33423
RHEA:42484
RHEA:33367
RHEA:49292
RHEA:49296
RHEA:33307
RHEA:42436
RHEA:49248
RHEA:49240

>  <Last Modified>  (33) 
18 Jun 2012

$$$$

     RDKit          2D

 17 17  0  0  0  0  0  0  0  0999 V2000
   -1.4143    0.7956    0.0000 C   0  0  0  0  0  0  0  0  0  0  0  0
   -2.1288    0.3830    0.0000 C   0  0  0  0  0  0  0  0  0  0  0  0
   -2.1288   -0.4420    0.0000 C   0  0  0  0  0  0  0  0  0  0  0  0
   -1.4143   -0.8545    0.0000 C   0  0  0  0  0  0  0  0  0  0  0  0
   -0.6998   -0.4420    0.0000 C   0  0  0  0  0  0  0  0  0  0  0  0
   -0.6998    0.3830    0.0000 C   0  0  0  0  0  0  0  0  0  0  0  0
    0.0147    0.7955    0.0000 C   0  0  0  0  0  0  0  0  0  0  0  0
    0.7291    0.3830    0.0000 C   0  0  0  0  0  0  0  0  0  0  0  0
    1.4436    0.7955    0.0000 C   0  0  0  0  0  0  0  0  0  0  0  0
    2.1581    0.3830    0.0000 O   0  0  0  0  0  0  0  0  0  0  0  0
    1.4436    1.6205    0.0000 O   0  0  0  0  0  0  0  0  0  0  0  0
    0.7291   -0.4420    0.0000 N   0  0  0  0  0  0  0  0  0  0  0  0
   -2.8432   -0.8545    0.0000 O   0  0  0  0  0  0  0  0  0  0  0  0
   -2.8432   -1.6795    0.0000 S   0  0  0  0  0  0  0  0  0  0  0  0
   -3.7345   -1.7089    0.0000 O   0  0  0  0  0  0  0  0  0  0  0  0
   -2.0182   -1.6795    0.0000 O   0  0  0  0  0  0  0  0  0  0  0  0
   -2.8432   -2.5045    0.0000 O   0  0  0  0  0  0  0  0  0  0  0  0
  1  2  2  0
  2  3  1  0
  3  4  2  0
  4  5  1  0
  5  6  2  0
  1  6  1  0
  6  7  1  0
  8  7  1  0
  8  9  1  0
  9 10  1  0
  9 11  2  0
  8 12  1  1
  3 13  1  0
 13 14  1  0
 14 15  1  0
 14 16  2  0
 14 17  2  0
V   10 *
M  END
>  <ChEBI ID>  (34) 
CHEBI:65286

>  <ChEBI Name>  (34) 
L-tyrosine-O-sulfate(1-) residue

>  <Star>  (34) 
3

>  <Definition>  (34) 
An alpha-amino-acid residue anion obtained by removal of a proton form the sulfate group of L-tyrosine-O-sulfate residue.

>  <SMILES>  (34) 
C=1C=C(C=CC1C[C@@H](C(*)=O)N*)OS([O-])(=O)=O

>  <Formulae>  (34) 
C9H8NO5S

>  <Charge>  (34) 
-1

>  <Mass>  (34) 
242.22900

>  <Monoisotopic Mass>  (34) 
242.01232

>  <Synonyms>  (34) 
L-tyrosine O-sulfate residue

>  <PubChem Database Links>  (34) 
SID: 160645129

>  <Rhea Database Links>  (34) 
RHEA:16801

>  <Last Modified>  (34) 
24 Jul 2012

$$$$

     RDKit          2D

 11 10  0  0  0  0  0  0  0  0999 V2000
   -4.1177    0.9134    0.0000 O   0  0  0  0  0  0  0  0  0  0  0  0
   -3.4032    0.5009    0.0000 C   0  0  0  0  0  0  0  0  0  0  0  0
   -2.6887    0.9134    0.0000 C   0  0  0  0  0  0  0  0  0  0  0  0
   -1.9743    0.5009    0.0000 C   0  0  0  0  0  0  0  0  0  0  0  0
   -1.2598    0.9134    0.0000 C   0  0  0  0  0  0  0  0  0  0  0  0
   -0.5453    0.5009    0.0000 O   0  0  0  0  0  0  0  0  0  0  0  0
   -1.2598    1.7384    0.0000 O   0  0  0  0  0  0  0  0  0  0  0  0
   -1.9743   -0.3241    0.0000 N   0  0  0  0  0  0  0  0  0  0  0  0
   -3.4032   -0.3241    0.0000 O   0  0  0  0  0  0  0  0  0  0  0  0
   -2.6887    1.7384    0.0000 S   0  0  0  0  0  0  0  0  0  0  0  0
   -3.4032    2.1509    0.0000 C   0  0  0  0  0  0  0  0  0  0  0  0
  1  2  1  0
  2  3  1  0
  3  4  1  0
  4  5  1  0
  5  6  1  0
  5  7  2  0
  4  8  1  1
  2  9  2  0
  3 10  1  0
 10 11  1  0
V    6 *
M  END
>  <ChEBI ID>  (35) 
CHEBI:73599

>  <ChEBI Name>  (35) 
3-methylthioaspartate residue

>  <Star>  (35) 
3

>  <Definition>  (35) 
An alpha-amino-acid residue anion obtained by deprotonation of the side-chain carboxy group of 3-methylthioaspartic acid residue.

>  <SMILES>  (35) 
[O-]C(C([C@@H](C(*)=O)N*)SC)=O

>  <Formulae>  (35) 
C5H6NO3S

>  <Charge>  (35) 
-1

>  <Mass>  (35) 
160.17100

>  <Monoisotopic Mass>  (35) 
160.00684

>  <Synonyms>  (35) 
3-(methylsulfanyl)-L-aspartate residue
3-(methylsulfanyl)aspartate residue
3-(methylthio)-L-aspartate residue
3-(methylthio)aspartate residue
3-methylsulfanyl-L-aspartate residue

>  <PubMed citation Links>  (35) 
19736993
20007320

>  <PubChem Database Links>  (35) 
SID: 163425712

>  <Rhea Database Links>  (35) 
RHEA:36351
RHEA:37087

>  <Last Modified>  (35) 
16 May 2017

$$$$

     RDKit          2D

 24 23  0  0  0  0  0  0  0  0999 V2000
    9.5711   -2.6269    0.0000 O   0  0  0  0  0  0  0  0  0  0  0  0
    8.1421   -3.4520    0.0000 N   0  0  0  0  0  0  0  0  0  0  0  0
    8.1421   -2.6269    0.0000 C   0  0  0  0  0  0  0  0  0  0  0  0
    7.4276   -2.2144    0.0000 C   0  0  0  0  0  0  0  0  0  0  0  0
    6.7130   -2.6269    0.0000 S   0  0  0  0  0  0  0  0  0  0  0  0
    5.9985   -2.2144    0.0000 C   0  0  0  0  0  0  0  0  0  0  0  0
    5.9985   -1.3893    0.0000 O   0  0  0  0  0  0  0  0  0  0  0  0
    5.2840   -2.6269    0.0000 C   0  0  0  0  0  0  0  0  0  0  0  0
    4.5694   -2.2144    0.0000 C   0  0  0  0  0  0  0  0  0  0  0  0
    3.8549   -2.6269    0.0000 C   0  0  0  0  0  0  0  0  0  0  0  0
    3.1404   -2.2144    0.0000 C   0  0  0  0  0  0  0  0  0  0  0  0
    2.4259   -2.6269    0.0000 C   0  0  0  0  0  0  0  0  0  0  0  0
    1.7113   -2.2144    0.0000 C   0  0  0  0  0  0  0  0  0  0  0  0
    0.9969   -2.6269    0.0000 C   0  0  0  0  0  0  0  0  0  0  0  0
    0.2823   -2.2144    0.0000 C   0  0  0  0  0  0  0  0  0  0  0  0
   -0.4322   -2.6269    0.0000 C   0  0  0  0  0  0  0  0  0  0  0  0
   -1.1468   -2.2144    0.0000 C   0  0  0  0  0  0  0  0  0  0  0  0
   -1.8612   -2.6269    0.0000 C   0  0  0  0  0  0  0  0  0  0  0  0
   -2.5758   -2.2144    0.0000 C   0  0  0  0  0  0  0  0  0  0  0  0
   -3.2903   -2.6269    0.0000 C   0  0  0  0  0  0  0  0  0  0  0  0
    8.8566   -2.2144    0.0000 C   0  0  0  0  0  0  0  0  0  0  0  0
   -4.0048   -2.2144    0.0000 C   0  0  0  0  0  0  0  0  0  0  0  0
   -4.7194   -2.6269    0.0000 C   0  0  0  0  0  0  0  0  0  0  0  0
    8.8566   -1.3893    0.0000 O   0  0  0  0  0  0  0  0  0  0  0  0
  1 21  1  0
  3  2  1  1
  3  4  1  0
  3 21  1  0
  4  5  1  0
  5  6  1  0
  6  7  2  0
  6  8  1  0
  8  9  1  0
  9 10  1  0
 10 11  1  0
 11 12  1  0
 12 13  1  0
 13 14  1  0
 14 15  1  0
 15 16  1  0
 16 17  1  0
 17 18  1  0
 18 19  1  0
 19 20  1  0
 20 22  1  0
 21 24  2  0
 22 23  1  0
V    1 *
M  END
>  <ChEBI ID>  (36) 
CHEBI:74151

>  <ChEBI Name>  (36) 
S-palmitoyl-L-cysteine residue

>  <Star>  (36) 
3

>  <Definition>  (36) 
An alpha-amino-acid residue derived from S-palmitoyl-L-cysteine.

>  <SMILES>  (36) 
*C([C@@H](N*)CSC(=O)CCCCCCCCCCCCCCC)=O

>  <Formulae>  (36) 
C19H35NO2S

>  <Charge>  (36) 
0

>  <Mass>  (36) 
341.55200

>  <Monoisotopic Mass>  (36) 
341.23885

>  <Synonyms>  (36) 
S-palmitoyl-L-cysteine residue

>  <PubMed citation Links>  (36) 
12681491

>  <EnzymePortal Database Links>  (36) 
Q9SB58
Q8WVZ1
Q810M5
Q6FW70
Q6BMV2
C8VCL4
Q4IA62
Q6CPU8
Q7S7C5
Q6C4W5
P42836
Q75CB4
Q4WC37
Q5AGV7
Q6FVE6
P0CS69
P0CS68
Q6BLY8
Q5BD15
Q554E7
Q9C0B5
Q8VDZ4
Q2THX1
Q5R838
Q2THW7
Q93VV0
Q2HJ95
Q8T2Q0
Q9H6R6
Q9CPV7
Q5REH2
Q9LIH7
Q552M6
Q9NXF8
Q91WU6
Q923G5
Q9LIE4
Q2THW8
Q54VH7
Q9ULC8
Q5Y5T5
Q2THX0
Q0WQK2
Q58DA8
Q9Y397
P59268
Q5R5J8
P0C7U3
Q8BQQ1
Q5M757
Q96MV8
Q8BGJ0
Q2TGJ4
Q5FWL7
Q9M115
Q58CU4
Q969W1
Q4R7E2
Q9ESG8
Q8L5Y5
Q8IUH5
Q80TN5
Q94C49
Q9NUE0
Q5Y5T2
Q2TGJ1
P0CS67
P0CS66
Q6BP80
Q5B0V6
Q4I8B6
Q875M2
Q875S9
Q9UVH3
Q876A6
Q7S3M5
Q876L5
Q09701
Q4P6L3
Q6C520
P39010
Q876L4
Q500Z2
Q0VC89
Q5W0Z9
Q5Y5T1
Q5PNZ1
A2VDT6
Q8IVQ6
Q9D270
Q5RB84
Q52T38
Q8N966
A0PK84
Q2TGI8
Q9FLM3
Q8IYP9
Q5Y5T3
Q76IC6
Q8VYS8
Q6UX98
Q6IR37
Q2TGI5
Q9C533
Q550R7
Q8WTX9
Q8R0N9
Q3EC11
Q86A83
Q9UIJ5
P59267
Q9JKR5
Q6DR03
Q557H5
Q9NYG2
Q8R173
O80685
Q58DT3
Q555N7
Q9NPG8
Q9D6H5
Q5FVR1
Q3EBC2
E1BLT8
Q2THW9
Q6C890
Q06551
Q75AW7
Q4WZL8
Q5ADN9
Q12013
Q750R7
Q4WWN2
Q59QL0
Q6FSS4
Q6BHT4
Q5B3W7
Q4I2M7
Q6CQB5
Q7SFL7
O74384
Q4IMZ7
Q6CUB5
Q7SCY6
Q4PE27
Q6C7Q0
Q12006
Q75D19
Q4WUK1
Q59NR8
Q6FMP5
Q6BP97
Q5B433
Q4I1J3
Q6CRV3
Q9C0W9
Q6C7D1
Q03289
Q74ZZ2
Q4WN54
Q5A861
Q6FXC6
Q6BP23
Q5BC23
Q6CJC5
Q7RWM9
O60069
Q6CG20
Q04629
Q9M306
Q7XA86
Q9H8X9
Q14AK4
B3DN87
Q96GR4
Q8VC90
Q6DGF5
Q9M1K5
Q8IUH4
Q4R690
Q9CWU2
Q5NVB9
Q8VYP5
Q8IZN3
Q755Y0
Q4X251
Q7Z8U2
Q5AL27
Q6FJ70

>  <PubChem Database Links>  (36) 
SID: 163626683

>  <Rhea Database Links>  (36) 
RHEA:19233
RHEA:36683

>  <UniProt Database Links>  (36) 
Q4I8B6
Q875M2
Q875S9
Q4P6L3
Q6C520
P39010
Q755Y0
Q4X251
Q7Z8U2
Q876L4
Q12013
Q75AW7
Q4WZL8
Q5ADN9
Q6FW70
Q6BMV2
C8VCL4
Q4IA62
Q6CPU8
Q7S7C5
Q6C4W5
P42836
Q75CB4
Q4WC37
Q4PE27
Q6C7Q0
Q12006
Q75D19
Q03289
Q9UVH3
Q876A6
Q7S3M5
Q876L5
Q09701
Q5AL27
Q6FJ70
P0CS67
P0CS66
Q6BP80
Q5B0V6
Q5AGV7
Q6FVE6
P0CS69
P0CS68
Q6BLY8
Q5BD15
Q4IMZ7
Q6CUB5
Q7SCY6
Q4WUK1
Q59NR8
Q6FMP5
Q6BP97
Q5B433
Q4I1J3
Q6CRV3
Q9C0W9
Q6C7D1
Q5A861
Q6FXC6
Q6BP23
Q5BC23
Q6CJC5
Q7RWM9
O60069
Q6CG20
Q04629
Q74ZZ2
Q4WN54
Q5B3W7
Q4I2M7
Q6CQB5
Q7SFL7
O74384
Q6C890
Q06551
Q750R7
Q4WWN2
Q59QL0
Q6FSS4
Q6BHT4
Q6DR03
Q9UIJ5
P59267
Q9JKR5
Q80TN5
Q94C49
Q8R173
Q58DA8
Q9Y397
P59268
Q557H5
Q9NYG2
Q5R5J8
Q9NUE0
Q5Y5T2
Q2TGJ1
Q9SB58
Q8WVZ1
Q810M5
Q9M306
Q5FVR1
Q3EBC2
Q7XA86
Q9H8X9
E1BLT8
Q2THW9
Q500Z2
Q0VC89
Q554E7
Q5W0Z9
Q5Y5T1
Q5PNZ1
A2VDT6
Q8IVQ6
Q9C0B5
Q8VDZ4
Q9D270
Q5RB84
Q2THX1
Q5R838
Q5NVB9
O80685
Q58DT3
Q555N7
Q9NPG8
Q9D6H5
Q14AK4
B3DN87
P0C7U3
Q96GR4
Q8VC90
Q6DGF5
Q9M1K5
Q8IUH4
Q4R690
Q9CWU2
Q8VYP5
Q2TGI8
Q52T38
Q8N966
A0PK84
Q2THW7
Q93VV0
Q8IZN3
Q8BQQ1
Q9FLM3
Q8IYP9
Q5Y5T3
Q8BGJ0
Q2HJ95
Q8T2Q0
Q9H6R6
Q5M757
Q96MV8
Q9LIH7
Q76IC6
Q8VYS8
Q6UX98
Q9CPV7
Q5REH2
Q9C533
Q2TGJ4
Q5FWL7
Q9M115
Q6IR37
Q2TGI5
Q552M6
Q9NXF8
Q91WU6
Q9ESG8
Q58CU4
Q969W1
Q4R7E2
Q923G5
Q9LIE4
Q8L5Y5
Q8IUH5
Q2THW8
Q54VH7
Q9ULC8
Q5Y5T5
Q2THX0
Q0WQK2
Q550R7
Q8WTX9
Q8R0N9
Q3EC11
Q86A83

>  <Last Modified>  (36) 
27 Jul 2015

$$$$

     RDKit          2D

 38 40  0  0  0  0  0  0  0  0999 V2000
    0.7145    0.2475    0.0000 P   0  0  0  0  0  0  0  0  0  0  0  0
    0.0000   -0.1650    0.0000 O   0  0  0  0  0  0  0  0  0  0  0  0
   -0.7145    0.2475    0.0000 C   0  0  0  0  0  0  0  0  0  0  0  0
   -1.4289   -0.1650    0.0000 C   0  0  0  0  0  0  0  0  0  0  0  0
   -4.2868   -0.1651    0.0000 N   0  0  0  0  0  0  0  0  0  0  0  0
   -4.2868   -0.9901    0.0000 C   0  0  0  0  0  0  0  0  0  0  0  0
   -5.0013    0.2474    0.0000 C   0  0  0  0  0  0  0  0  0  0  0  0
   -3.5724    0.2474    0.0000 C   0  0  0  0  0  0  0  0  0  0  0  0
   -5.0013   -1.4026    0.0000 C   0  0  0  0  0  0  0  0  0  0  0  0
   -3.5724   -1.4026    0.0000 N   0  0  0  0  0  0  0  0  0  0  0  0
   -5.7158   -0.1651    0.0000 C   0  0  0  0  0  0  0  0  0  0  0  0
   -5.0013    1.0724    0.0000 C   0  0  0  0  0  0  0  0  0  0  0  0
   -5.7158   -0.9901    0.0000 N   0  0  0  0  0  0  0  0  0  0  0  0
   -5.0013   -2.2276    0.0000 C   0  0  0  0  0  0  0  0  0  0  0  0
   -3.5724   -2.2276    0.0000 C   0  0  0  0  0  0  0  0  0  0  0  0
   -6.4303    0.2474    0.0000 C   0  0  0  0  0  0  0  0  0  0  0  0
   -5.7159    1.4849    0.0000 C   0  0  0  0  0  0  0  0  0  0  0  0
   -2.8579   -0.9901    0.0000 O   0  0  0  0  0  0  0  0  0  0  0  0
   -4.2868   -2.6401    0.0000 N   0  0  0  0  0  0  0  0  0  0  0  0
   -5.7158   -2.6401    0.0000 O   0  0  0  0  0  0  0  0  0  0  0  0
   -2.8579   -2.6401    0.0000 O   0  0  0  0  0  0  0  0  0  0  0  0
   -6.4303    1.0724    0.0000 C   0  0  0  0  0  0  0  0  0  0  0  0
   -5.7159    2.3099    0.0000 C   0  0  0  0  0  0  0  0  0  0  0  0
   -2.1434    1.0724    0.0000 O   0  0  0  0  0  0  0  0  0  0  0  0
   -7.1448    1.4849    0.0000 C   0  0  0  0  0  0  0  0  0  0  0  0
   -1.4290   -0.9900    0.0000 O   0  0  0  0  0  0  0  0  0  0  0  0
    0.7145    1.0725    0.0000 O   0  0  0  0  0  0  0  0  0  0  0  0
   -2.8579   -0.1651    0.0000 C   0  0  0  0  0  0  0  0  0  0  0  0
   -2.1434    0.2474    0.0000 C   0  0  0  0  0  0  0  0  0  0  0  0
    1.4289   -0.1650    0.0000 O   0  0  0  0  0  0  0  0  0  0  0  0
    1.4289   -0.9900    0.0000 C   0  0  0  0  0  0  0  0  0  0  0  0
    0.7144   -1.4025    0.0000 C   0  0  0  0  0  0  0  0  0  0  0  0
    2.1434   -1.4025    0.0000 C   0  0  0  0  0  0  0  0  0  0  0  0
    2.8578   -0.9900    0.0000 C   0  0  0  0  0  0  0  0  0  0  0  0
    3.5723   -1.4025    0.0000 O   0  0  0  0  0  0  0  0  0  0  0  0
    2.1434   -2.2275    0.0000 N   0  0  0  0  0  0  0  0  0  0  0  0
    2.8578   -0.1650    0.0000 O   0  0  0  0  0  0  0  0  0  0  0  0
    0.7145   -0.5775    0.0000 O   0  0  0  0  0  0  0  0  0  0  0  0
  1 27  2  0
  2  1  1  0
  3  2  1  0
  4  3  1  0
 29  4  1  0
  4 26  1  1
  1 30  1  0
  5  6  1  0
  5  7  1  0
  5  8  1  0
  6  9  1  0
  6 10  2  0
  7 11  2  0
  7 12  1  0
  8 28  1  0
  9 13  2  0
  9 14  1  0
 10 15  1  0
 11 16  1  0
 11 13  1  0
 12 17  2  0
 14 19  1  0
 14 20  2  0
 15 21  2  0
 15 19  1  0
 16 22  2  0
 17 23  1  0
 17 22  1  0
 28 18  1  1
 22 25  1  0
 29 24  1  6
 28 29  1  0
 31 30  1  0
 31 32  1  1
 31 33  1  0
 33 34  1  0
 34 35  1  0
 33 36  1  1
 34 37  2  0
  1 38  1  0
V   35 *
M  END
>  <ChEBI ID>  (37) 
CHEBI:74257

>  <ChEBI Name>  (37) 
FMN-L-threonine(2-) residue

>  <Star>  (37) 
3

>  <Definition>  (37) 
An organic anionic group obtained by deprotonation of the phosphate OH group and the heterocyclic ring of FMN-L-threonine residue.

>  <SMILES>  (37) 
P(=O)(OC[C@H]([C@@H](O)[C@H](CN1C=2C(=NC3=C1C=C(C)C(=C3)C)C([N-]C(N2)=O)=O)O)O)(O[C@H](C)[C@@H](C(*)=O)N*)[O-]

>  <Formulae>  (37) 
C21H24N5O10P

>  <Charge>  (37) 
-2

>  <Mass>  (37) 
537.41650

>  <Monoisotopic Mass>  (37) 
537.12608

>  <Synonyms>  (37) 
FMN-L-threonine residue

>  <PubMed citation Links>  (37) 
23558683

>  <PubChem Database Links>  (37) 
SID: 163626942

>  <Rhea Database Links>  (37) 
RHEA:36847

>  <Last Modified>  (37) 
27 Jun 2013

$$$$

     RDKit          2D

 13 12  0  0  1  0  0  0  0  0999 V2000
    2.0243    0.9625    0.0000 O   0  0  0  0  0  0  0  0  0  0  0  0
    2.0243    0.1375    0.0000 C   0  0  0  0  0  0  0  0  0  0  0  0
    2.7388   -0.2750    0.0000 O   0  0  0  0  0  0  0  0  0  0  0  0
    1.3099   -0.2750    0.0000 C   0  0  0  0  0  0  0  0  0  0  0  0
    0.5954    0.1375    0.0000 C   0  0  0  0  0  0  0  0  0  0  0  0
   -0.1191   -0.2750    0.0000 C   0  0  0  0  0  0  0  0  0  0  0  0
   -0.8335    0.1375    0.0000 C   0  0  0  0  0  0  0  0  0  0  0  0
   -1.5480   -0.2750    0.0000 N   0  0  0  0  0  0  0  0  0  0  0  0
   -2.2625    0.1375    0.0000 C   0  0  0  0  0  0  0  0  0  0  0  0
   -2.2625    0.9625    0.0000 N   0  0  0  0  0  0  0  0  0  0  0  0
   -2.9770   -0.2750    0.0000 N   0  0  0  0  0  0  0  0  0  0  0  0
    1.3099   -1.1000    0.0000 N   0  0  0  0  0  0  0  0  0  0  0  0
    0.5954    0.9625    0.0000 O   0  0  0  0  0  0  0  0  0  0  0  0
  2  1  2  0
  3  2  1  0
  4  2  1  0
  4 12  1  1
  5  4  1  0
  6  5  1  0
  8  7  1  0
  6  7  1  0
  9  8  1  0
 10  9  2  0
 11  9  1  0
  5 13  1  1
V    3 *
M  END
>  <ChEBI ID>  (38) 
CHEBI:78294

>  <ChEBI Name>  (38) 
(3R)-3-hydroxy-L-argininium residue

>  <Star>  (38) 
3

>  <Definition>  (38) 
An amino-acid cation residue obtained by protonation of the guanidino group (3R)-3-hydroxy-L-arginine residue; major species at pH 7.3.

>  <SMILES>  (38) 
NC(=[NH2+])NCC[C@@H](O)[C@H](N-*)C(-*)=O

>  <Formulae>  (38) 
C6H13N4O2

>  <Charge>  (38) 
+1

>  <Mass>  (38) 
173.19250

>  <Monoisotopic Mass>  (38) 
173.10385

>  <Synonyms>  (38) 
(3R)-3-hydroxy-L-arginine residue

>  <MetaCyc Database Links>  (38) 
Protein-L-Hydroxylarginines

>  <PubMed citation Links>  (38) 
23103944

>  <PubChem Database Links>  (38) 
SID: 223443656

>  <Rhea Database Links>  (38) 
RHEA:57164
RHEA:41556
RHEA:56744
RHEA:57160

>  <Last Modified>  (38) 
11 Jul 2014

$$$$

     RDKit          2D

 20 19  0  0  0  0  0  0  0  0999 V2000
   -3.3884    2.6813    0.0000 N   0  0  0  0  0  0  0  0  0  0  0  0
   -2.6739    3.0938    0.0000 C   0  0  0  0  0  0  0  0  0  0  0  0
   -1.9595    2.6813    0.0000 C   0  0  0  0  0  0  0  0  0  0  0  0
   -1.2450    3.0938    0.0000 O   0  0  0  0  0  0  0  0  0  0  0  0
   -1.9595    1.8563    0.0000 O   0  0  0  0  0  0  0  0  0  0  0  0
   -2.6739    3.9188    0.0000 C   0  0  0  0  0  0  0  0  0  0  0  0
   -1.9595    4.3313    0.0000 C   0  0  0  0  0  0  0  0  0  0  0  0
   -1.9595    5.1563    0.0000 C   0  0  0  0  0  0  0  0  0  0  0  0
   -1.2450    5.5688    0.0000 N   0  0  0  0  0  0  0  0  0  0  0  0
   -2.6739    5.5688    0.0000 O   0  0  0  0  0  0  0  0  0  0  0  0
   -1.2450    6.3938    0.0000 C   0  0  0  0  0  0  0  0  0  0  0  0
   -0.5305    6.8063    0.0000 C   0  0  0  0  0  0  0  0  0  0  0  0
   -1.9595    6.8063    0.0000 C   0  0  0  0  0  0  0  0  0  0  0  0
   -1.9595    7.6313    0.0000 O   0  0  0  0  0  0  0  0  0  0  0  0
   -2.6739    6.3938    0.0000 O   0  0  0  0  0  0  0  0  0  0  0  0
    0.1840    6.3938    0.0000 C   0  0  0  0  0  0  0  0  0  0  0  0
    0.8984    6.8063    0.0000 C   0  0  0  0  0  0  0  0  0  0  0  0
    1.6129    6.3938    0.0000 C   0  0  0  0  0  0  0  0  0  0  0  0
    2.3274    6.8063    0.0000 O   0  0  0  0  0  0  0  0  0  0  0  0
    1.6129    5.5688    0.0000 O   0  0  0  0  0  0  0  0  0  0  0  0
  2  1  1  1
  2  3  1  0
  3  4  1  0
  3  5  2  0
  2  6  1  0
  6  7  1  0
  7  8  1  0
  8  9  1  0
  8 10  2  0
 11  9  1  0
 11 12  1  6
 11 13  1  0
 13 14  2  0
 13 15  1  0
 12 16  1  0
 16 17  1  0
 17 18  1  0
 18 19  1  0
 18 20  2  0
M  END
>  <ChEBI ID>  (39) 
CHEBI:78503

>  <ChEBI Name>  (39) 
C-terminal-gamma-L-glutamyl-L-2-aminoadipate(3-) group

>  <Star>  (39) 
3

>  <Definition>  (39) 
An alpha-amino-acid residue anion obtained by deprotonation of the carboxy groups of C-terminal-gamma-L-glutamyl-L-2-aminoadipic acid group. Major structure at pH 7.3

>  <SMILES>  (39) 
[O-]C(=O)CCC[C@H](NC(=O)CC[C@H](N-*)C([O-])=O)C([O-])=O

>  <Formulae>  (39) 
C11H14N2O7

>  <Charge>  (39) 
-3

>  <Mass>  (39) 
286.23970

>  <Monoisotopic Mass>  (39) 
286.08010

>  <Synonyms>  (39) 
C-terminal-L-glutamyl-gamma-L-alpha-aminoadipate(3-)
C-terminal-gamma-L-glutamyl-L-2-aminoadipate group

>  <PubChem Database Links>  (39) 
SID: 223443834

>  <Rhea Database Links>  (39) 
RHEA:41940
RHEA:41944

>  <Last Modified>  (39) 
30 Jul 2014

$$$$

     RDKit          2D

 19 18  0  0  0  0  0  0  0  0999 V2000
   -3.3884    2.6813    0.0000 N   0  0  0  0  0  0  0  0  0  0  0  0
   -2.6739    3.0938    0.0000 C   0  0  0  0  0  0  0  0  0  0  0  0
   -1.9595    2.6813    0.0000 C   0  0  0  0  0  0  0  0  0  0  0  0
   -1.2450    3.0938    0.0000 O   0  0  0  0  0  0  0  0  0  0  0  0
   -1.9595    1.8563    0.0000 O   0  0  0  0  0  0  0  0  0  0  0  0
   -2.6739    3.9188    0.0000 C   0  0  0  0  0  0  0  0  0  0  0  0
   -1.9595    4.3313    0.0000 C   0  0  0  0  0  0  0  0  0  0  0  0
   -1.9595    5.1563    0.0000 C   0  0  0  0  0  0  0  0  0  0  0  0
   -1.2450    5.5688    0.0000 N   0  0  0  0  0  0  0  0  0  0  0  0
   -2.6739    5.5688    0.0000 O   0  0  0  0  0  0  0  0  0  0  0  0
   -1.2450    6.3938    0.0000 C   0  0  0  0  0  0  0  0  0  0  0  0
   -0.5305    6.8063    0.0000 C   0  0  0  0  0  0  0  0  0  0  0  0
   -1.9595    6.8063    0.0000 C   0  0  0  0  0  0  0  0  0  0  0  0
   -1.9595    7.6313    0.0000 O   0  0  0  0  0  0  0  0  0  0  0  0
   -2.6739    6.3938    0.0000 O   0  0  0  0  0  0  0  0  0  0  0  0
    0.1840    6.3938    0.0000 C   0  0  0  0  0  0  0  0  0  0  0  0
    0.8984    6.8063    0.0000 C   0  0  0  0  0  0  0  0  0  0  0  0
    1.6129    6.3938    0.0000 C   0  0  0  0  0  0  0  0  0  0  0  0
    2.3274    6.8063    0.0000 N   0  0  0  0  0  0  0  0  0  0  0  0
  2  1  1  1
  2  3  1  0
  3  4  1  0
  3  5  2  0
  2  6  1  0
  6  7  1  0
  7  8  1  0
  8  9  1  0
  8 10  2  0
 11  9  1  0
 11 12  1  6
 11 13  1  0
 13 14  2  0
 13 15  1  0
 12 16  1  0
 16 17  1  0
 17 18  1  0
 18 19  1  0
M  END
>  <ChEBI ID>  (40) 
CHEBI:78526

>  <ChEBI Name>  (40) 
C-terminal-gamma-L-glutamyl-L-lysine(1-) group

>  <Star>  (40) 
3

>  <Definition>  (40) 
An alpha-amino-acid residue anion obtained by deprotonation of C-terminal-gamma-L-glutamyl-L-lysine residue. Major structure at pH 7.3

>  <SMILES>  (40) 
[NH3+]CCCC[C@H](NC(=O)CC[C@H](N-*)C([O-])=O)C([O-])=O

>  <Formulae>  (40) 
C11H19N3O5

>  <Charge>  (40) 
-1

>  <Mass>  (40) 
273.28620

>  <Monoisotopic Mass>  (40) 
273.13247

>  <Synonyms>  (40) 
C-terminal-gamma-L-glutamyl-L-lysine group

>  <PubChem Database Links>  (40) 
SID: 223443852

>  <Rhea Database Links>  (40) 
RHEA:48684
RHEA:41952

>  <Last Modified>  (40) 
25 Aug 2014

$$$$

     RDKit          2D

 15 15  0  0  1  0  0  0  0  0999 V2000
    1.8098    1.4608    0.0000 O   0  0  0  0  0  0  0  0  0  0  0  0
    1.8098    0.6358    0.0000 C   0  0  0  0  0  0  0  0  0  0  0  0
    1.0953    0.2233    0.0000 C   0  0  0  0  0  0  0  0  0  0  0  0
    0.3809    0.6358    0.0000 C   0  0  0  0  0  0  0  0  0  0  0  0
   -0.3336    0.2233    0.0000 C   0  0  0  0  0  0  0  0  0  0  0  0
   -0.3336   -0.6017    0.0000 C   0  0  0  0  0  0  0  0  0  0  0  0
   -1.7625    0.2233    0.0000 C   0  0  0  0  0  0  0  0  0  0  0  0
   -1.7625   -0.6017    0.0000 C   0  0  0  0  0  0  0  0  0  0  0  0
   -2.4770   -1.0142    0.0000 O   0  0  0  0  0  0  0  0  0  0  0  0
   -1.0481    0.6358    0.0000 C   0  0  0  0  0  0  0  0  0  0  0  0
   -1.0481    1.4608    0.0000 O   0  0  0  0  0  0  0  0  0  0  0  0
   -1.0481   -1.0142    0.0000 C   0  0  0  0  0  0  0  0  0  0  0  0
   -1.0481   -1.8392    0.0000 O   0  0  0  0  0  0  0  0  0  0  0  0
    1.0953   -0.6017    0.0000 N   0  0  0  0  0  0  0  0  0  0  0  0
    2.5243    0.2233    0.0000 O   0  0  0  0  0  0  0  0  0  0  0  0
  2  1  2  0
 15  2  1  0
  3  2  1  0
  3 14  1  1
  3  4  1  0
  5  4  1  0
  6  5  2  0
 10  5  1  0
  7 10  1  0
 12  6  1  0
  8  7  2  0
 12  8  1  0
  9  8  1  0
 10 11  2  0
 12 13  2  0
V   15 *
M  END
>  <ChEBI ID>  (41) 
CHEBI:79027

>  <ChEBI Name>  (41) 
L-topaquinone(1-) residue

>  <Star>  (41) 
3

>  <Definition>  (41) 
An organic anionic group obtained by deprotonation of the hydroxy group of L-topaquinone residue. It is the major microspecies at pH 7.3 (according to Marvin v 6.2.0.).

>  <SMILES>  (41) 
[O-]C1=CC(=O)C(C[C@H](N-*)C(-*)=O)=CC1=O

>  <Formulae>  (41) 
C9H6NO4

>  <Charge>  (41) 
-1

>  <Mass>  (41) 
192.14880

>  <Monoisotopic Mass>  (41) 
192.02968

>  <Synonyms>  (41) 
L-topaquinone

>  <PubChem Database Links>  (41) 
SID: 223444243

>  <Rhea Database Links>  (41) 
RHEA:64464

>  <Last Modified>  (41) 
17 Sep 2014

$$$$

     RDKit          2D

  8  7  0  0  0  0  0  0  0  0999 V2000
   -1.3259   -0.2652    0.0000 S   0  0  0  0  0  0  0  0  0  0  0  0
   -0.6114    0.1473    0.0000 C   0  0  0  0  0  0  0  0  0  0  0  0
    0.1030   -0.2652    0.0000 C   0  0  0  0  0  0  0  0  0  0  0  0
   -2.0404    0.1473    0.0000 C   0  0  0  0  0  0  0  0  0  0  0  0
    0.8175    0.1473    0.0000 C   0  0  0  0  0  0  0  0  0  0  0  0
    0.1030   -1.0902    0.0000 N   0  0  0  0  0  0  0  0  0  0  0  0
    1.5320   -0.2652    0.0000 O   0  0  0  0  0  0  0  0  0  0  0  0
    0.8175    0.9723    0.0000 O   0  0  0  0  0  0  0  0  0  0  0  0
  1  2  1  0
  3  2  1  0
  1  4  1  0
  3  5  1  0
  3  6  1  1
  5  7  1  0
  5  8  2  0
V    7 *
M  END
>  <ChEBI ID>  (42) 
CHEBI:82612

>  <ChEBI Name>  (42) 
S-methyl-L-cysteine residue

>  <Star>  (42) 
3

>  <Definition>  (42) 
An alpha-amino-acid residue derived from S-methyl-L-cysteine.

>  <SMILES>  (42) 
CSC[C@H](N-*)C(-*)=O

>  <Formulae>  (42) 
C4H7NOS

>  <Charge>  (42) 
0

>  <Mass>  (42) 
117.16900

>  <Monoisotopic Mass>  (42) 
117.02483

>  <Synonyms>  (42) 
S-methyl-L-cysteine residue

>  <PubChem Database Links>  (42) 
SID: 223447347

>  <Rhea Database Links>  (42) 
RHEA:56324
RHEA:66544
RHEA:53428
RHEA:24000
RHEA:46808

>  <Last Modified>  (42) 
27 Jul 2015

$$$$

     RDKit          2D

 15 14  0  0  0  0  0  0  0  0999 V2000
    0.3572    0.2062    0.0000 C   0  0  0  0  0  0  0  0  0  0  0  0
   -0.3572   -0.2063    0.0000 C   0  0  0  0  0  0  0  0  0  0  0  0
   -1.0717    0.2062    0.0000 C   0  0  0  0  0  0  0  0  0  0  0  0
   -1.7862   -0.2063    0.0000 C   0  0  0  0  0  0  0  0  0  0  0  0
   -2.5006    0.2062    0.0000 N   0  0  0  0  0  0  0  0  0  0  0  0
    1.7862    0.2063    0.0000 C   0  0  0  0  0  0  0  0  0  0  0  0
    1.7862    1.0313    0.0000 O   0  0  0  0  0  0  0  0  0  0  0  0
    1.0717   -0.2063    0.0000 C   0  0  0  0  0  0  0  0  0  0  0  0
    1.0717   -1.0313    0.0000 N   0  0  0  0  0  0  0  0  0  0  0  0
    2.5007   -0.2062    0.0000 O   0  0  0  0  0  0  0  0  0  0  0  0
   -3.2151   -0.2063    0.0000 C   0  0  0  0  0  0  0  0  0  0  0  0
   -3.9295    0.2063    0.0000 C   0  0  0  0  0  0  0  0  0  0  0  0
   -4.6440   -0.2062    0.0000 C   0  0  0  0  0  0  0  0  0  0  0  0
   -5.3585    0.2063    0.0000 C   0  0  0  0  0  0  0  0  0  0  0  0
   -6.0730   -0.2061    0.0000 N   0  0  0  0  0  0  0  0  0  0  0  0
 10  6  1  0
  8  6  1  0
  8  1  1  0
  2  1  1  0
  3  2  1  0
  4  3  1  0
  5  4  1  0
  6  7  2  0
  8  9  1  1
  5 11  1  0
 11 12  1  0
 12 13  1  0
 13 14  1  0
 14 15  1  0
V   10 *
M  END
>  <ChEBI ID>  (43) 
CHEBI:82657

>  <ChEBI Name>  (43) 
deoxyhypusine(2+) residue

>  <Star>  (43) 
3

>  <Definition>  (43) 
An alpha-amino-acid residue cation obtained by protonation of the side-chain amino groups of the deoxyhypusine residue; major species at pH 7.3.

>  <SMILES>  (43) 
[NH3+]CCCC[NH2+]CCCC[C@H](N-*)C(-*)=O

>  <Formulae>  (43) 
C10H23N3O

>  <Charge>  (43) 
+2

>  <Mass>  (43) 
201.30800

>  <Monoisotopic Mass>  (43) 
201.18411

>  <Synonyms>  (43) 
N(6)-(4-aminobutyl)-L-lysine residue
deoxyhypusine residue
deoxyhypusinium residue

>  <PubChem Database Links>  (43) 
SID: 223447385

>  <Rhea Database Links>  (43) 
RHEA:33299
RHEA:14101
RHEA:52996

>  <Last Modified>  (43) 
12 Feb 2016

$$$$

     RDKit          2D

 56 60  0  0  0  0  0  0  0  0999 V2000
    7.4547   -3.9180    0.0000 N   0  0  0  0  0  0  0  0  0  0  0  0
    8.2617   -4.0895    0.0000 C   0  0  0  0  0  0  0  0  0  0  0  0
    6.8418   -4.4701    0.0000 C   0  0  0  0  0  0  0  0  0  0  0  0
    7.3685   -3.0975    0.0000 C   0  0  0  0  0  0  0  0  0  0  0  0
    8.6742   -3.3751    0.0000 C   0  0  0  0  0  0  0  0  0  0  0  0
    8.6743   -4.8040    0.0000 N   0  0  0  0  0  0  0  0  0  0  0  0
    6.0347   -4.2985    0.0000 O   0  0  0  0  0  0  0  0  0  0  0  0
    6.9279   -5.2905    0.0000 C   0  0  0  0  0  0  0  0  0  0  0  0
    8.1221   -2.7619    0.0000 N   0  0  0  0  0  0  0  0  0  0  0  0
    9.4992   -3.3750    0.0000 C   0  0  0  0  0  0  0  0  0  0  0  0
    9.4993   -4.8040    0.0000 C   0  0  0  0  0  0  0  0  0  0  0  0
    5.6222   -5.0130    0.0000 C   0  0  0  0  0  0  0  0  0  0  0  0
    6.1743   -5.6261    0.0000 C   0  0  0  0  0  0  0  0  0  0  0  0
    7.6424   -5.7031    0.0000 O   0  0  0  0  0  0  0  0  0  0  0  0
    9.9117   -4.0895    0.0000 N   0  0  0  0  0  0  0  0  0  0  0  0
    9.9117   -2.6606    0.0000 N   0  0  0  0  0  0  0  0  0  0  0  0
    4.8017   -5.0992    0.0000 C   0  0  0  0  0  0  0  0  0  0  0  0
    6.0027   -6.4330    0.0000 O   0  0  0  0  0  0  0  0  0  0  0  0
    4.3168   -4.4318    0.0000 O   0  0  0  0  0  0  0  0  0  0  0  0
    1.8418   -3.0031    0.0000 O   0  0  0  0  0  0  0  0  0  0  0  0
    1.0212   -3.0892    0.0000 C   0  0  0  0  0  0  0  0  0  0  0  0
    0.5365   -2.4218    0.0000 C   0  0  0  0  0  0  0  0  0  0  0  0
    0.7913   -1.6373    0.0000 O   0  0  0  0  0  0  0  0  0  0  0  0
   -0.2887   -2.4219    0.0000 C   0  0  0  0  0  0  0  0  0  0  0  0
    0.1239   -1.1523    0.0000 C   0  0  0  0  0  0  0  0  0  0  0  0
   -0.5436   -1.6373    0.0000 C   0  0  0  0  0  0  0  0  0  0  0  0
   -0.7735   -3.0893    0.0000 O   0  0  0  0  0  0  0  0  0  0  0  0
   -1.3282   -1.3823    0.0000 O   0  0  0  0  0  0  0  0  0  0  0  0
    3.0793   -3.7175    0.0000 O   0  0  0  0  0  0  0  0  0  0  0  0
    3.0794   -5.1463    0.0000 O   0  0  0  0  0  0  0  0  0  0  0  0
    1.8419   -4.4320    0.0000 O   0  0  0  0  0  0  0  0  0  0  0  0
    2.2544   -3.7175    0.0000 P   0  0  0  0  0  0  0  0  0  0  0  0
    2.6667   -3.0030    0.0000 O   0  0  0  0  0  0  0  0  0  0  0  0
    3.4918   -4.4319    0.0000 P   0  0  0  0  0  0  0  0  0  0  0  0
    3.9042   -3.7174    0.0000 O   0  0  0  0  0  0  0  0  0  0  0  0
    0.1239   -0.3273    0.0000 N   0  0  0  0  0  0  0  0  0  0  0  0
    0.5363    0.9423    0.0000 N   0  0  0  0  0  0  0  0  0  0  0  0
   -1.5599    2.1074    0.0000 C   0  0  0  0  0  0  0  0  0  0  0  0
   -2.9890    2.1073    0.0000 C   0  0  0  0  0  0  0  0  0  0  0  0
   -2.2745    0.8698    0.0000 C   0  0  0  0  0  0  0  0  0  0  0  0
   -1.5599    0.4573    0.0000 C   0  0  0  0  0  0  0  0  0  0  0  0
   -2.9890    0.4574    0.0000 C   0  0  0  0  0  0  0  0  0  0  0  0
   -2.2745    1.6948    0.0000 N   0  0  0  0  0  0  0  0  0  0  0  0
   -2.2745    2.5199    0.0000 C   0  0  0  0  0  0  0  0  0  0  0  0
    0.9488   -0.3273    0.0000 C   0  0  0  0  0  0  0  0  0  0  0  0
   -0.1311    0.4574    0.0000 C   0  0  0  0  0  0  0  0  0  0  0  0
   -0.8456    0.8699    0.0000 C   0  0  0  0  0  0  0  0  0  0  0  0
   -2.9890   -0.3676    0.0000 O   0  0  0  0  0  0  0  0  0  0  0  0
    1.2037    0.4574    0.0000 C   0  0  0  0  0  0  0  0  0  0  0  0
    1.9183    0.8699    0.0000 C   0  0  0  0  0  0  0  0  0  0  0  0
    2.6328    0.4574    0.0000 C   0  0  0  0  0  0  0  0  0  0  0  0
    3.3471    0.8699    0.0000 C   0  0  0  0  0  0  0  0  0  0  0  0
    3.3471    1.6949    0.0000 O   0  0  0  0  0  0  0  0  0  0  0  0
   -3.7035    0.8699    0.0000 N   0  0  0  0  0  0  0  0  0  0  0  0
    2.6328   -0.3675    0.0000 N   0  0  0  0  0  0  0  0  0  0  0  0
    4.0616    0.4574    0.0000 O   0  0  0  0  0  0  0  0  0  0  0  0
  1  2  1  0
  3  1  1  1
  1  4  1  0
  2  5  2  0
  2  6  1  0
  3  7  1  0
  3  8  1  0
  4  9  2  0
  5 10  1  0
  6 11  2  0
  7 12  1  0
  8 13  1  0
  8 14  1  6
 10 15  2  0
 10 16  1  0
 12 17  1  1
 13 18  1  6
 17 19  1  0
 20 21  1  0
 22 21  1  6
 22 23  1  0
 22 24  1  0
 23 25  1  0
 24 26  1  0
 24 27  1  1
 26 28  1  1
  5  9  1  0
 11 15  1  0
 12 13  1  0
 25 26  1  0
 19 34  1  0
 34 29  1  0
 29 32  1  0
 34 30  2  0
 32 20  1  0
 32 31  2  0
 32 33  1  0
 34 35  1  0
 25 36  1  1
 49 37  1  0
 46 37  2  0
 43 38  1  0
 43 39  1  0
 40 43  1  0
 40 41  1  1
 40 42  1  0
 41 47  1  0
 42 48  2  0
 42 54  1  0
 43 44  1  0
 45 49  2  0
 36 45  1  0
 46 36  1  0
 47 46  1  0
 49 50  1  0
 51 50  1  0
 51 52  1  0
 51 55  1  1
 52 53  2  0
 52 56  1  0
V   56 *
M  END
>  <ChEBI ID>  (44) 
CHEBI:82697

>  <ChEBI Name>  (44) 
N-(ADP-alpha-D-ribosyl)diphthamide(1-) residue

>  <Star>  (44) 
3

>  <Definition>  (44) 
An organic anionic group obtained by deprotonation of the diphosphate OH groups of N-(ADP-alpha-D-ribosyl)diphthamide residue.

>  <SMILES>  (44) 
C[N+](C)(C)[C@@H](CCc1nc(C[C@H](N-*)C(-*)=O)cn1[C@H]1O[C@H](COP([O-])(=O)OP([O-])(=O)OC[C@H]2O[C@H]([C@H](O)[C@@H]2O)n2cnc3c(N)ncnc23)[C@@H](O)[C@H]1O)C(N)=O

>  <Formulae>  (44) 
C28H41N10O15P2

>  <Charge>  (44) 
-1

>  <Mass>  (44) 
819.63120

>  <Monoisotopic Mass>  (44) 
819.22281

>  <Synonyms>  (44) 
N-(ADP-D-ribosyl)diphthamide residue

>  <PubMed citation Links>  (44) 
3090031

>  <PubChem Database Links>  (44) 
SID: 223447419

>  <Rhea Database Links>  (44) 
RHEA:11820

>  <Last Modified>  (44) 
09 Jan 2023

$$$$

     RDKit          2D

 11 10  0  0  1  0  0  0  0  0999 V2000
   14.5288   -8.2622    0.0000 C   0  0  0  0  0  0  0  0  0  0  0  0
   14.5288   -7.4372    0.0000 O   0  0  0  0  0  0  0  0  0  0  0  0
   13.8143   -8.6747    0.0000 C   0  0  0  0  0  0  0  0  0  0  0  0
   13.8143   -9.4997    0.0000 N   0  0  0  0  0  0  0  0  0  0  0  0
   13.0999   -8.2622    0.0000 C   0  0  0  0  0  0  0  0  0  0  0  0
   11.6709   -8.2621    0.0000 C   0  0  0  0  0  0  0  0  0  0  0  0
   11.6709   -7.4371    0.0000 O   0  0  0  0  0  0  0  0  0  0  0  0
   10.9564   -8.6746    0.0000 O   0  0  0  0  0  0  0  0  0  0  0  0
   12.3854   -8.6747    0.0000 C   0  0  0  0  0  0  0  0  0  0  0  0
   15.2433   -8.6747    0.0000 O   0  0  0  0  0  0  0  0  0  0  0  0
   10.2419   -8.2621    0.0000 C   0  0  0  0  0  0  0  0  0  0  0  0
  1 10  1  0
  2  1  2  0
  3  1  1  0
  3  4  1  1
  3  5  1  0
  7  6  2  0
  8  6  1  0
  9  6  1  0
  5  9  1  0
  8 11  1  0
V   10 *
M  END
>  <ChEBI ID>  (45) 
CHEBI:82795

>  <ChEBI Name>  (45) 
gamma-methyl L-glutamate residue

>  <Star>  (45) 
3

>  <Definition>  (45) 
An alpha-amino-acid residue derived from gamma-methyl glutamate.

>  <SMILES>  (45) 
COC(=O)CC[C@H](N-*)C(-*)=O

>  <Formulae>  (45) 
C6H9NO3

>  <Charge>  (45) 
0

>  <Mass>  (45) 
143.14060

>  <Monoisotopic Mass>  (45) 
143.05824

>  <Synonyms>  (45) 
L-glutamate O(5)-methyl ester residue
L-glutamic acid O(5)-methyl ester residue
gamma-methyl glutamate residue

>  <MetaboLights Database Links>  (45) 
MTBLS106
MTBLS145
MTBLS136

>  <PubChem Database Links>  (45) 
SID: 223447501

>  <Rhea Database Links>  (45) 
RHEA:23236
RHEA:24452

>  <Last Modified>  (45) 
27 Jul 2015

$$$$

     RDKit          2D

 21 21  0  0  0  0  0  0  0  0999 V2000
    0.3572    0.2062    0.0000 C   0  0  0  0  0  0  0  0  0  0  0  0
   -0.3572   -0.2063    0.0000 C   0  0  0  0  0  0  0  0  0  0  0  0
   -1.0717    0.2062    0.0000 C   0  0  0  0  0  0  0  0  0  0  0  0
   -1.7862   -0.2063    0.0000 C   0  0  0  0  0  0  0  0  0  0  0  0
    1.7862    0.2063    0.0000 C   0  0  0  0  0  0  0  0  0  0  0  0
    1.7862    1.0313    0.0000 O   0  0  0  0  0  0  0  0  0  0  0  0
    1.0717   -0.2063    0.0000 C   0  0  0  0  0  0  0  0  0  0  0  0
    1.0717   -1.0313    0.0000 N   0  0  0  0  0  0  0  0  0  0  0  0
    2.5007   -0.2062    0.0000 O   0  0  0  0  0  0  0  0  0  0  0  0
   -7.4549   -0.2787    0.0000 C   0  0  0  0  0  0  0  0  0  0  0  0
   -7.0424    0.9908    0.0000 S   0  0  0  0  0  0  0  0  0  0  0  0
   -8.1223    0.2062    0.0000 C   0  0  0  0  0  0  0  0  0  0  0  0
   -7.8674    0.9908    0.0000 S   0  0  0  0  0  0  0  0  0  0  0  0
   -6.7875    0.2062    0.0000 C   0  0  0  0  0  0  0  0  0  0  0  0
   -6.0730   -0.2063    0.0000 C   0  0  0  0  0  0  0  0  0  0  0  0
   -5.3585    0.2062    0.0000 C   0  0  0  0  0  0  0  0  0  0  0  0
   -4.6440   -0.2063    0.0000 C   0  0  0  0  0  0  0  0  0  0  0  0
   -3.9296    0.2062    0.0000 C   0  0  0  0  0  0  0  0  0  0  0  0
   -3.2151   -0.2063    0.0000 C   0  0  0  0  0  0  0  0  0  0  0  0
   -3.2151   -1.0313    0.0000 O   0  0  0  0  0  0  0  0  0  0  0  0
   -2.5006    0.2062    0.0000 N   0  0  0  0  0  0  0  0  0  0  0  0
  9  5  1  0
  7  5  1  0
  7  1  1  0
  2  1  1  0
  3  2  1  0
  4  3  1  0
 21  4  1  0
  5  6  2  0
  7  8  1  1
 14 10  1  0
 14 11  1  0
 10 12  1  0
 11 13  1  0
 12 13  1  0
 14 15  1  6
 15 16  1  0
 16 17  1  0
 17 18  1  0
 18 19  1  0
 19 21  1  0
 19 20  2  0
V    9 *
M  END
>  <ChEBI ID>  (46) 
CHEBI:83099

>  <ChEBI Name>  (46) 
N(6)-[(R)-lipoyl]-L-lysine residue

>  <Star>  (46) 
3

>  <Definition>  (46) 
An N(6)-lipoyl-L-lysine residue in which the lipoyl group has R-configuration.

>  <SMILES>  (46) 
*-N[C@@H](CCCCNC(=O)CCCC[C@@H]1CCSS1)C(-*)=O

>  <Formulae>  (46) 
C14H24N2O2S2

>  <Charge>  (46) 
0

>  <Mass>  (46) 
316.48300

>  <Monoisotopic Mass>  (46) 
316.12792

>  <Synonyms>  (46) 
N(6)-[(R)-lipoyl]-L-lysine residue

>  <MetaCyc Database Links>  (46) 
Lipoyl-Protein-N6-lipoyllysine

>  <PubChem Database Links>  (46) 
SID: 223447758

>  <Rhea Database Links>  (46) 
RHEA:62636
RHEA:19189
RHEA:49288
RHEA:20473
RHEA:12188
RHEA:69576
RHEA:13457
RHEA:15045
RHEA:16413
RHEA:24304

>  <Last Modified>  (46) 
04 Sep 2023

$$$$

     RDKit          2D

 25 26  0  0  0  0  0  0  0  0999 V2000
    2.6400   -6.5529    0.0000 O   0  0  0  0  0  0  0  0  0  0  0  0
    1.9255   -6.1404    0.0000 C   0  0  0  0  0  0  0  0  0  0  0  0
    1.2111   -6.5529    0.0000 C   0  0  0  0  0  0  0  0  0  0  0  0
    0.4966   -6.1404    0.0000 C   0  0  0  0  0  0  0  0  0  0  0  0
   -0.2179   -6.5529    0.0000 C   0  0  0  0  0  0  0  0  0  0  0  0
   -0.9324   -6.1404    0.0000 C   0  0  0  0  0  0  0  0  0  0  0  0
   -1.6468   -6.5529    0.0000 C   0  0  0  0  0  0  0  0  0  0  0  0
   -2.3613   -6.1404    0.0000 N   0  0  0  0  0  0  0  0  0  0  0  0
   -3.0758   -6.5529    0.0000 C   0  0  0  0  0  0  0  0  0  0  0  0
   -3.7902   -6.1404    0.0000 C   0  0  0  0  0  0  0  0  0  0  0  0
   -4.5047   -6.5529    0.0000 C   0  0  0  0  0  0  0  0  0  0  0  0
   -5.2192   -6.1404    0.0000 C   0  0  0  0  0  0  0  0  0  0  0  0
   -5.9337   -6.5529    0.0000 C   0  0  0  0  0  0  0  0  0  0  0  0
   -6.6481   -6.1404    0.0000 C   0  0  0  0  0  0  0  0  0  0  0  0
    1.9255   -5.3154    0.0000 O   0  0  0  0  0  0  0  0  0  0  0  0
    1.2111   -7.3779    0.0000 N   0  0  0  0  0  0  0  0  0  0  0  0
   -3.0758   -7.3779    0.0000 O   0  0  0  0  0  0  0  0  0  0  0  0
   -7.7229   -5.3487    0.0000 C   0  0  0  0  0  0  0  0  0  0  0  0
   -7.9829   -6.1317    0.0000 C   0  0  0  0  0  0  0  0  0  0  0  0
   -7.3187   -6.6209    0.0000 S   0  0  0  0  0  0  0  0  0  0  0  0
   -6.8979   -5.3541    0.0000 C   0  0  0  0  0  0  0  0  0  0  0  0
   -7.3104   -4.0792    0.0000 C   0  0  0  0  0  0  0  0  0  0  0  0
   -7.9778   -4.5642    0.0000 N   0  0  0  0  0  0  0  0  0  0  0  0
   -6.6430   -4.5642    0.0000 N   0  0  0  0  0  0  0  0  0  0  0  0
   -7.3104   -3.2542    0.0000 O   0  0  0  0  0  0  0  0  0  0  0  0
  1  2  1  0
  2  3  1  0
  3  4  1  0
  4  5  1  0
  5  6  1  0
  6  7  1  0
  7  8  1  0
  8  9  1  0
  9 10  1  0
 10 11  1  0
 11 12  1  0
 12 13  1  0
 14 13  1  6
  2 15  2  0
  3 16  1  1
  9 17  2  0
 18 19  1  6
 19 20  1  0
 18 21  1  0
 20 14  1  0
 14 21  1  0
 22 23  1  0
 22 24  1  0
 23 18  1  0
 21 24  1  6
 22 25  2  0
V    1 *
M  END
>  <ChEBI ID>  (47) 
CHEBI:83144

>  <ChEBI Name>  (47) 
biotinyl-L-lysine residue

>  <Star>  (47) 
3

>  <Definition>  (47) 
An alpha-amino-acid residue derived from biotinyl-L-lysine.

>  <SMILES>  (47) 
*-N[C@@H](CCCCNC(=O)CCCC[C@@H]1SC[C@@H]2NC(=O)N[C@H]12)C(-*)=O

>  <Formulae>  (47) 
C16H26N4O3S

>  <Charge>  (47) 
0

>  <Mass>  (47) 
354.46800

>  <Monoisotopic Mass>  (47) 
354.17256

>  <Synonyms>  (47) 
N(6)-biotinyl-L-lysine residue

>  <MetaCyc Database Links>  (47) 
Biotinylated-MadF-Proteins

>  <PubChem Database Links>  (47) 
SID: 223447800

>  <Rhea Database Links>  (47) 
RHEA:59732
RHEA:23668
RHEA:13025
RHEA:43336
RHEA:13501
RHEA:11756
RHEA:66612
RHEA:23028
RHEA:11204
RHEA:54728
RHEA:24376

>  <Last Modified>  (47) 
02 Jul 2018

$$$$

     RDKit          2D

 27 29  0  0  0  0  0  0  0  0999 V2000
    1.9255   -6.9654    0.0000 C   0  0  0  0  0  0  0  0  0  0  0  0
    1.2111   -6.5529    0.0000 C   0  0  0  0  0  0  0  0  0  0  0  0
    1.9255   -7.7904    0.0000 O   0  0  0  0  0  0  0  0  0  0  0  0
    0.4966   -6.9654    0.0000 N   0  0  0  0  0  0  0  0  0  0  0  0
    3.3949   -1.3311    0.0000 N   0  0  0  0  0  0  0  0  0  0  0  0
    3.3949   -2.1561    0.0000 C   0  0  0  0  0  0  0  0  0  0  0  0
    2.6805   -2.5686    0.0000 N   0  0  0  0  0  0  0  0  0  0  0  0
    2.6803   -3.3936    0.0000 C   0  0  0  0  0  0  0  0  0  0  0  0
    3.3949   -3.8061    0.0000 N   0  0  0  0  0  0  0  0  0  0  0  0
    4.1093   -3.3936    0.0000 C   0  0  0  0  0  0  0  0  0  0  0  0
    4.1093   -2.5686    0.0000 C   0  0  0  0  0  0  0  0  0  0  0  0
    4.8939   -2.3137    0.0000 N   0  0  0  0  0  0  0  0  0  0  0  0
    5.3790   -2.9812    0.0000 C   0  0  0  0  0  0  0  0  0  0  0  0
    4.8939   -3.6486    0.0000 N   0  0  0  0  0  0  0  0  0  0  0  0
    5.1489   -4.4334    0.0000 C   0  0  0  0  0  0  0  0  0  0  0  0
    4.6639   -5.1007    0.0000 O   0  0  0  0  0  0  0  0  0  0  0  0
    5.1488   -5.7683    0.0000 C   0  0  0  0  0  0  0  0  0  0  0  0
    5.9334   -5.5133    0.0000 C   0  0  0  0  0  0  0  0  0  0  0  0
    6.6009   -5.9983    0.0000 O   0  0  0  0  0  0  0  0  0  0  0  0
    5.9336   -4.6883    0.0000 C   0  0  0  0  0  0  0  0  0  0  0  0
    6.6009   -4.2034    0.0000 O   0  0  0  0  0  0  0  0  0  0  0  0
    4.0688   -6.5529    0.0000 O   0  0  0  0  0  0  0  0  0  0  0  0
    3.3544   -7.7904    0.0000 O   0  0  0  0  0  0  0  0  0  0  0  0
    3.3544   -6.9654    0.0000 P   0  0  0  0  0  0  0  0  0  0  0  0
    3.3544   -6.1404    0.0000 O   0  0  0  0  0  0  0  0  0  0  0  0
    4.8938   -6.5529    0.0000 C   0  0  0  0  0  0  0  0  0  0  0  0
    2.6400   -6.5529    0.0000 O   0  0  0  0  0  0  0  0  0  0  0  0
  1  2  1  0
  1  3  2  0
  2  4  1  0
  5  6  1  0
  6  7  2  0
  6 11  1  0
  7  8  1  0
  8  9  2  0
  9 10  1  0
 10 11  2  0
 10 14  1  0
 11 12  1  0
 12 13  2  0
 13 14  1  0
 15 14  1  1
 15 16  1  0
 15 20  1  0
 16 17  1  0
 17 26  1  1
 17 18  1  0
 18 19  1  6
 18 20  1  0
 20 21  1  6
 22 24  1  0
 24 23  2  0
 24 25  1  0
 26 22  1  0
 24 27  1  0
  1 27  1  0
M  END
>  <ChEBI ID>  (48) 
CHEBI:83151

>  <ChEBI Name>  (48) 
glycyl-AMP(1-) residue

>  <Star>  (48) 
3

>  <Definition>  (48) 
An organic anionic group derived from glycyl-AMP(1-).

>  <SMILES>  (48) 
Nc1ncnc2n(cnc12)[C@@H]1O[C@H](COP([O-])(=O)OC(=O)CN-*)[C@@H](O)[C@H]1O

>  <Formulae>  (48) 
C12H15N6O8P

>  <Charge>  (48) 
-1

>  <Mass>  (48) 
402.25720

>  <Monoisotopic Mass>  (48) 
402.06890

>  <Synonyms>  (48) 
adenylylcarboxyglycine residue

>  <MetaCyc Database Links>  (48) 
Adenylated-ThiS-Proteins

>  <PubChem Database Links>  (48) 
SID: 223447805

>  <Last Modified>  (48) 
24 Nov 2014

$$$$

     RDKit          2D

 16 15  0  0  1  0  0  0  0  0999 V2000
    2.0243    0.9625    0.0000 O   0  0  0  0  0  0  0  0  0  0  0  0
    2.0243    0.1375    0.0000 C   0  0  0  0  0  0  0  0  0  0  0  0
    2.7388   -0.2750    0.0000 O   0  0  0  0  0  0  0  0  0  0  0  0
    1.3099   -0.2750    0.0000 C   0  0  0  0  0  0  0  0  0  0  0  0
    0.5954    0.1375    0.0000 C   0  0  0  0  0  0  0  0  0  0  0  0
   -0.1191   -0.2750    0.0000 C   0  0  0  0  0  0  0  0  0  0  0  0
   -0.8335    0.1375    0.0000 C   0  0  0  0  0  0  0  0  0  0  0  0
   -1.5480   -0.2750    0.0000 N   0  0  0  0  0  0  0  0  0  0  0  0
   -2.2625    0.1375    0.0000 C   0  0  0  0  0  0  0  0  0  0  0  0
   -2.2625    0.9625    0.0000 N   0  0  0  0  0  0  0  0  0  0  0  0
   -2.9770   -0.2750    0.0000 N   0  0  0  0  0  0  0  0  0  0  0  0
    1.3099   -1.1000    0.0000 N   0  0  0  0  0  0  0  0  0  0  0  0
   -3.6915    0.1375    0.0000 P   0  0  0  0  0  0  0  0  0  0  0  0
   -4.4059   -0.2750    0.0000 O   0  0  0  0  0  0  0  0  0  0  0  0
   -3.6914    0.9625    0.0000 O   0  0  0  0  0  0  0  0  0  0  0  0
   -3.6915   -0.6875    0.0000 O   0  0  0  0  0  0  0  0  0  0  0  0
  2  1  2  0
  3  2  1  0
  4  2  1  0
  4 12  1  1
  4  5  1  0
  6  5  1  0
  8  7  1  0
  6  7  1  0
  9  8  1  0
 10  9  2  0
 11  9  1  0
 11 13  1  0
 13 14  1  0
 13 15  2  0
 13 16  1  0
V    3 *
M  END
>  <ChEBI ID>  (49) 
CHEBI:83226

>  <ChEBI Name>  (49) 
N(omega)-phospho-L-arginine(1-) residue

>  <Star>  (49) 
3

>  <Definition>  (49) 
An alpha-amino-acid residue anion derived from N(omega)-phospho-L-arginine(1-).

>  <SMILES>  (49) 
[O-]P([O-])(=O)NC(=[NH2+])NCCC[C@H](N-*)C(-*)=O

>  <Formulae>  (49) 
C6H12N4O4P

>  <Charge>  (49) 
-1

>  <Mass>  (49) 
235.15820

>  <Monoisotopic Mass>  (49) 
235.05962

>  <Synonyms>  (49) 
N(omega)-phospho-L-arginine residue

>  <PubMed citation Links>  (49) 
22517742
24825175

>  <PubChem Database Links>  (49) 
SID: 223447854

>  <Rhea Database Links>  (49) 
RHEA:43380
RHEA:43384

>  <Last Modified>  (49) 
24 Nov 2014

$$$$

     RDKit          2D

 12 11  0  0  1  0  0  0  0  0999 V2000
    2.0243    0.9625    0.0000 O   0  0  0  0  0  0  0  0  0  0  0  0
    2.0243    0.1375    0.0000 C   0  0  0  0  0  0  0  0  0  0  0  0
    2.7388   -0.2750    0.0000 O   0  0  0  0  0  0  0  0  0  0  0  0
    1.3099   -0.2750    0.0000 C   0  0  0  0  0  0  0  0  0  0  0  0
    0.5954    0.1375    0.0000 C   0  0  0  0  0  0  0  0  0  0  0  0
   -0.1191   -0.2750    0.0000 C   0  0  0  0  0  0  0  0  0  0  0  0
   -0.8335    0.1375    0.0000 C   0  0  0  0  0  0  0  0  0  0  0  0
   -1.5480   -0.2750    0.0000 N   0  0  0  0  0  0  0  0  0  0  0  0
   -2.2625    0.1375    0.0000 C   0  0  0  0  0  0  0  0  0  0  0  0
   -2.2625    0.9625    0.0000 O   0  0  0  0  0  0  0  0  0  0  0  0
   -2.9770   -0.2750    0.0000 N   0  0  0  0  0  0  0  0  0  0  0  0
    1.3099   -1.1000    0.0000 N   0  0  0  0  0  0  0  0  0  0  0  0
  2  1  2  0
  3  2  1  0
  4  2  1  0
  4 12  1  1
  4  5  1  0
  6  5  1  0
  8  7  1  0
  6  7  1  0
  9  8  1  0
 10  9  2  0
 11  9  1  0
V    3 *
M  END
>  <ChEBI ID>  (50) 
CHEBI:83397

>  <ChEBI Name>  (50) 
L-citrulline residue

>  <Star>  (50) 
3

>  <Definition>  (50) 
An L-alpha-amino acid residue derived from L-citrulline.

>  <SMILES>  (50) 
NC(=O)NCCC[C@H](N-*)C(-*)=O

>  <Formulae>  (50) 
C6H11N3O2

>  <Charge>  (50) 
0

>  <Mass>  (50) 
157.17040

>  <Monoisotopic Mass>  (50) 
157.08513

>  <Synonyms>  (50) 
L-citrulline residue

>  <PubChem Database Links>  (50) 
SID: 223448127

>  <Rhea Database Links>  (50) 
RHEA:18089

>  <Last Modified>  (50) 
16 Sep 2019

$$$$

     RDKit          2D

 11 10  0  0  1  0  0  0  0  0999 V2000
    1.4289    0.2357    0.0000 C   0  0  0  0  0  0  0  0  0  0  0  0
   -0.7145   -0.1768    0.0000 O   0  0  0  0  0  0  0  0  0  0  0  0
   -2.1434   -0.1768    0.0000 O   0  0  0  0  0  0  0  0  0  0  0  0
    0.0000    0.2357    0.0000 C   0  0  0  0  0  0  0  0  0  0  0  0
    0.7145   -0.1768    0.0000 C   0  0  0  0  0  0  0  0  0  0  0  0
   -1.4289    0.2357    0.0000 P   0  0  0  0  0  0  0  0  0  0  0  0
   -1.4289    1.0607    0.0000 O   0  0  0  0  0  0  0  0  0  0  0  0
    1.4289    1.0607    0.0000 O   0  0  0  0  0  0  0  0  0  0  0  0
   -1.4289   -0.5893    0.0000 O   0  0  0  0  0  0  0  0  0  0  0  0
    0.7145   -1.0018    0.0000 N   0  0  0  0  0  0  0  0  0  0  0  0
    2.1434   -0.1768    0.0000 O   0  0  0  0  0  0  0  0  0  0  0  0
  1 11  1  0
  1  8  2  0
  2  4  1  0
  5  1  1  0
  5  4  1  0
  5 10  1  1
  6  2  1  0
  6  3  1  0
  6  7  2  0
  6  9  1  0
V   11 *
M  END
>  <ChEBI ID>  (51) 
CHEBI:83421

>  <ChEBI Name>  (51) 
O-phospho-L-serine(2-) residue

>  <Star>  (51) 
3

>  <Definition>  (51) 
An alpha-amino-acid residue anion obtained by deprotonation of the phosphate OH groups of O-phospho-L-serine residue; major speices at pH 7.3.

>  <SMILES>  (51) 
[O-]P([O-])(=O)OC[C@H](N-*)C(-*)=O

>  <Formulae>  (51) 
C3H4NO5P

>  <Charge>  (51) 
-2

>  <Mass>  (51) 
165.04240

>  <Monoisotopic Mass>  (51) 
164.98271

>  <Synonyms>  (51) 
O-phospho-L-serine residue

>  <PubChem Database Links>  (51) 
SID: 223448137

>  <Rhea Database Links>  (51) 
RHEA:43540
RHEA:12669
RHEA:64020
RHEA:68752
RHEA:20333
RHEA:12953
RHEA:17989
RHEA:46600
RHEA:18673
RHEA:20329
RHEA:68748
RHEA:12849
RHEA:15881
RHEA:19073
RHEA:64104
RHEA:23356
RHEA:17301
RHEA:23052
RHEA:46604
RHEA:23172
RHEA:20629
RHEA:12801
RHEA:17133
RHEA:22004

>  <Last Modified>  (51) 
12 Jan 2015

$$$$

     RDKit          2D

 15 15  0  0  0  0  0  0  0  0999 V2000
    3.7590   -0.8133    0.0000 C   0  0  0  0  0  0  0  0  0  0  0  0
    3.0445   -1.2258    0.0000 C   0  0  0  0  0  0  0  0  0  0  0  0
    3.0445   -2.0507    0.0000 N   0  0  0  0  0  0  0  0  0  0  0  0
    2.3301   -0.8133    0.0000 C   0  0  0  0  0  0  0  0  0  0  0  0
    1.6157   -1.2258    0.0000 C   0  0  0  0  0  0  0  0  0  0  0  0
    1.5293   -2.0461    0.0000 N   0  0  0  0  0  0  0  0  0  0  0  0
    0.8620   -0.8901    0.0000 C   0  0  0  0  0  0  0  0  0  0  0  0
    0.7224   -2.2176    0.0000 C   0  0  0  0  0  0  0  0  0  0  0  0
    0.3099   -1.5032    0.0000 N   0  0  0  0  0  0  0  0  0  0  0  0
    3.7591    0.0116    0.0000 O   0  0  0  0  0  0  0  0  0  0  0  0
   -0.5151   -1.5032    0.0000 P   0  0  0  0  0  0  0  0  0  0  0  0
   -1.3400   -1.5032    0.0000 O   0  0  0  0  0  0  0  0  0  0  0  0
   -0.5151   -2.3281    0.0000 O   0  0  0  0  0  0  0  0  0  0  0  0
   -0.5150   -0.6781    0.0000 O   0  0  0  0  0  0  0  0  0  0  0  0
    4.4734   -1.2258    0.0000 O   0  0  0  0  0  0  0  0  0  0  0  0
  1 10  2  0
  2  1  1  0
  2  3  1  1
  2  4  1  0
  6  5  1  0
  7  5  2  0
  8  6  2  0
  9  7  1  0
  8  9  1  0
  5  4  1  0
 11 12  1  0
 11 13  1  0
 11 14  2  0
 11  9  1  0
  1 15  1  0
V   15 *
M  END
>  <ChEBI ID>  (52) 
CHEBI:83586

>  <ChEBI Name>  (52) 
N(tele)-phosphonato-L-histidine residue

>  <Star>  (52) 
3

>  <Definition>  (52) 
An anionic amino-acid residue formed by loss of both protons from the phospho group of N(tele)-phospho-L-histidine residue, the principal form present at pH 7.3.

>  <SMILES>  (52) 
[O-]P([O-])(=O)n1cnc(C[C@H](N-*)C(-*)=O)c1

>  <Formulae>  (52) 
C6H6N3O4P

>  <Charge>  (52) 
-2

>  <Mass>  (52) 
215.10440

>  <Monoisotopic Mass>  (52) 
215.00959

>  <Synonyms>  (52) 
N(tele)-phospho-L-histidine residue

>  <PubChem Database Links>  (52) 
SID: 223448587

>  <Rhea Database Links>  (52) 
RHEA:43692
RHEA:11860
RHEA:47960
RHEA:43684
RHEA:43696
RHEA:43688

>  <Last Modified>  (52) 
20 Jan 2015

$$$$

     RDKit          2D

 35 38  0  0  1  0  0  0  0  0999 V2000
   22.2590  -13.4063    0.0000 O   0  0  0  0  0  0  0  0  0  0  0  0
   22.9602  -12.9938    0.0000 C   0  0  0  0  0  0  0  0  0  0  0  0
   23.6615  -13.4063    0.0000 C   0  0  0  0  0  0  0  0  0  0  0  0
   22.9602  -12.1688    0.0000 C   0  0  0  0  0  0  0  0  0  0  0  0
   24.4040  -12.9938    0.0000 C   0  0  0  0  0  0  0  0  0  0  0  0
   23.6615  -11.7563    0.0000 C   0  0  0  0  0  0  0  0  0  0  0  0
   24.4040  -12.1688    0.0000 C   0  0  0  0  0  0  0  0  0  0  0  0
   25.1052  -11.7975    0.0000 C   0  0  0  0  0  0  0  0  0  0  0  0
   25.8477  -12.1688    0.0000 C   0  0  0  0  0  0  0  0  0  0  0  0
   26.5490  -11.7975    0.0000 C   0  0  0  0  0  0  0  0  0  0  0  0
   25.8477  -12.9938    0.0000 N   0  0  0  0  0  0  0  0  0  0  0  0
   27.2502  -12.1688    0.0000 O   0  0  0  0  0  0  0  0  0  0  0  0
   26.5490  -10.9725    0.0000 O   0  0  0  0  0  0  0  0  0  0  0  0
   21.4340  -13.4063    0.0000 P   0  0  0  0  0  0  0  0  0  0  0  0
   21.4340  -12.5813    0.0000 O   0  0  0  0  0  0  0  0  0  0  0  0
   20.6090  -13.4063    0.0000 O   0  0  0  0  0  0  0  0  0  0  0  0
   21.4340  -14.2313    0.0000 O   0  0  0  0  0  0  0  0  0  0  0  0
   19.9077  -12.9938    0.0000 C   0  0  0  0  0  0  0  0  0  0  0  0
   19.1652  -13.4063    0.0000 C   0  0  0  0  0  0  0  0  0  0  0  0
   18.9177  -14.1900    0.0000 C   0  0  0  0  0  0  0  0  0  0  0  0
   18.0927  -14.1900    0.0000 C   0  0  0  0  0  0  0  0  0  0  0  0
   17.8452  -13.4063    0.0000 C   0  0  0  0  0  0  0  0  0  0  0  0
   18.5052  -12.9113    0.0000 O   0  0  0  0  0  0  0  0  0  0  0  0
   19.3302  -14.8913    0.0000 O   0  0  0  0  0  0  0  0  0  0  0  0
   17.6802  -14.8913    0.0000 O   0  0  0  0  0  0  0  0  0  0  0  0
   17.0615  -13.2000    0.0000 N   0  0  0  0  0  0  0  0  0  0  0  0
   16.4427  -13.7363    0.0000 C   0  0  0  0  0  0  0  0  0  0  0  0
   16.4427  -14.5613    0.0000 N   0  0  0  0  0  0  0  0  0  0  0  0
   15.7415  -14.9738    0.0000 C   0  0  0  0  0  0  0  0  0  0  0  0
   14.9990  -14.5613    0.0000 N   0  0  0  0  0  0  0  0  0  0  0  0
   14.9990  -13.7363    0.0000 C   0  0  0  0  0  0  0  0  0  0  0  0
   15.7415  -13.3238    0.0000 C   0  0  0  0  0  0  0  0  0  0  0  0
   15.9065  -12.4988    0.0000 N   0  0  0  0  0  0  0  0  0  0  0  0
   16.7315  -12.4163    0.0000 C   0  0  0  0  0  0  0  0  0  0  0  0
   14.2977  -13.3238    0.0000 N   0  0  0  0  0  0  0  0  0  0  0  0
  1  2  1  0
  2  3  2  0
  2  4  1  0
  3  5  1  0
  4  6  2  0
  5  7  2  0
  7  8  1  0
  9  8  1  0
  9 10  1  0
  9 11  1  1
 10 12  1  0
 10 13  2  0
  6  7  1  0
  1 14  1  0
 14 15  2  0
 14 16  1  0
 14 17  1  0
 16 18  1  0
 19 18  1  6
 20 21  1  0
 21 22  1  0
 22 23  1  0
 19 23  1  0
 20 19  1  0
 20 24  1  1
 21 25  1  1
 22 26  1  6
 27 28  2  0
 28 29  1  0
 29 30  2  0
 30 31  1  0
 31 32  2  0
 27 32  1  0
 32 33  1  0
 33 34  2  0
 34 26  1  0
 27 26  1  0
 31 35  1  0
V   12 *
M  END
>  <ChEBI ID>  (53) 
CHEBI:83624

>  <ChEBI Name>  (53) 
O-adenyl-L-tyrosine(1-) residue

>  <Star>  (53) 
3

>  <Definition>  (53) 
An alpha-amino-acid residue anion obtained by removal of a proton form the phosphate group of O-adenyl-L-tyrosine residue; major species at pH 7.3.

>  <SMILES>  (53) 
Nc1ncnc2n(cnc12)[C@@H]1O[C@H](COP([O-])(=O)Oc2ccc(C[C@H](N-*)C(-*)=O)cc2)[C@@H](O)[C@H]1O

>  <Formulae>  (53) 
C19H20N6O8P

>  <Charge>  (53) 
-1

>  <Mass>  (53) 
491.37180

>  <Monoisotopic Mass>  (53) 
491.10802

>  <Synonyms>  (53) 
L-tyrosine-O-adenyl residue

>  <PubChem Database Links>  (53) 
SID: 223448591

>  <Rhea Database Links>  (53) 
RHEA:66528
RHEA:53740
RHEA:54288
RHEA:18589
RHEA:43716

>  <Last Modified>  (53) 
20 Jan 2015

$$$$

     RDKit          2D

  9  8  0  0  0  0  0  0  0  0999 V2000
   -0.3830   -0.2946    0.0000 C   0  0  0  0  0  0  0  0  0  0  0  0
    0.3314    0.1179    0.0000 C   0  0  0  0  0  0  0  0  0  0  0  0
    1.0459   -0.2946    0.0000 O   0  0  0  0  0  0  0  0  0  0  0  0
    0.3314    0.9429    0.0000 O   0  0  0  0  0  0  0  0  0  0  0  0
   -1.0975    0.1179    0.0000 C   0  0  0  0  0  0  0  0  0  0  0  0
   -0.3830   -1.1196    0.0000 N   0  0  0  0  0  0  0  0  0  0  0  0
   -1.0975   -1.5321    0.0000 C   0  0  0  0  0  0  0  0  0  0  0  0
   -1.0975   -2.3571    0.0000 O   0  0  0  0  0  0  0  0  0  0  0  0
   -1.8120   -1.1196    0.0000 C   0  0  0  0  0  0  0  0  0  0  0  0
  1  2  1  0
  2  3  1  0
  2  4  2  0
  1  5  1  1
  1  6  1  0
  6  7  1  0
  7  8  2  0
  7  9  1  0
V    3 *
M  END
>  <ChEBI ID>  (54) 
CHEBI:83683

>  <ChEBI Name>  (54) 
N-terminal N-acetyl-L-alanine residue

>  <Star>  (54) 
3

>  <Definition>  (54) 
An N-terminal alpha-amino-acid residue derived from N-terminal N-acetyl-L-alanine.

>  <SMILES>  (54) 
C[C@H](NC(C)=O)C(-*)=O

>  <Formulae>  (54) 
C5H8NO2

>  <Charge>  (54) 
0

>  <Mass>  (54) 
114.12250

>  <Monoisotopic Mass>  (54) 
114.05550

>  <Synonyms>  (54) 
N-terminal N(alpha)-acetyl-L-alanine residue

>  <PubChem Database Links>  (54) 
SID: 223448610

>  <Rhea Database Links>  (54) 
RHEA:16433
RHEA:43756
RHEA:50500
RHEA:43752

>  <Last Modified>  (54) 
29 May 2018

$$$$

     RDKit          2D

 24 23  0  0  0  0  0  0  0  0999 V2000
   12.3150  -17.0097    0.0000 C   0  0  0  0  0  0  0  0  0  0  0  0
   11.6075  -17.4342    0.0000 C   0  0  0  0  0  0  0  0  0  0  0  0
   10.9001  -17.0097    0.0000 C   0  0  0  0  0  0  0  0  0  0  0  0
   10.1926  -17.4342    0.0000 C   0  0  0  0  0  0  0  0  0  0  0  0
    9.4853  -17.0097    0.0000 C   0  0  0  0  0  0  0  0  0  0  0  0
    8.7779  -17.4342    0.0000 C   0  0  0  0  0  0  0  0  0  0  0  0
    8.0703  -17.0097    0.0000 C   0  0  0  0  0  0  0  0  0  0  0  0
   12.3150  -16.2079    0.0000 O   0  0  0  0  0  0  0  0  0  0  0  0
   13.0225  -17.4342    0.0000 O   0  0  0  0  0  0  0  0  0  0  0  0
    7.3490  -17.4100    0.0000 C   0  0  0  0  0  0  0  0  0  0  0  0
    8.7637  -15.7593    0.0000 C   0  0  0  0  0  0  0  0  0  0  0  0
   10.9004  -16.2086    0.0000 C   0  0  0  0  0  0  0  0  0  0  0  0
   10.1928  -15.7845    0.0000 C   0  0  0  0  0  0  0  0  0  0  0  0
    9.4637  -16.1962    0.0000 C   0  0  0  0  0  0  0  0  0  0  0  0
    6.6344  -16.1726    0.0000 C   0  0  0  0  0  0  0  0  0  0  0  0
    7.3488  -15.7600    0.0000 C   0  0  0  0  0  0  0  0  0  0  0  0
    6.6346  -16.9976    0.0000 C   0  0  0  0  0  0  0  0  0  0  0  0
    8.0635  -16.1724    0.0000 C   0  0  0  0  0  0  0  0  0  0  0  0
   13.7370  -17.0217    0.0000 C   0  0  0  0  0  0  0  0  0  0  0  0
   14.4514  -17.4342    0.0000 C   0  0  0  0  0  0  0  0  0  0  0  0
   15.1659  -17.0217    0.0000 C   0  0  0  0  0  0  0  0  0  0  0  0
   15.8804  -17.4342    0.0000 O   0  0  0  0  0  0  0  0  0  0  0  0
   15.1659  -16.1967    0.0000 O   0  0  0  0  0  0  0  0  0  0  0  0
   14.4514  -18.2592    0.0000 N   0  0  0  0  0  0  0  0  0  0  0  0
  2  1  1  0
  9  1  1  0
  8  1  2  0
  3  2  1  0
  3  4  1  0
  5  4  1  0
  5  6  1  0
  7  6  1  0
  7 10  1  0
 12 13  1  0
 13 14  1  0
 14 11  1  0
 16 15  1  0
 17 15  2  0
 18 16  1  0
 10 17  1  0
 11 18  1  0
 20 19  1  0
 20 21  1  0
 21 22  1  0
  9 19  1  0
 21 23  2  0
 20 24  1  1
V   22 *
M  END
>  <ChEBI ID>  (55) 
CHEBI:85189

>  <ChEBI Name>  (55) 
O-[(9Z)-hexadecenoyl]-L-serine residue

>  <Star>  (55) 
3

>  <Definition>  (55) 
An alpha-amino-acid residue that is an L-serine residue in which the alcoholic hydroxy group has been acylated with a (9Z)-hexadec-9-enoyl group.

>  <SMILES>  (55) 
CCCCCC\C=C/CCCCCCCC(=O)OC[C@H](N-*)C(-*)=O

>  <Formulae>  (55) 
C19H33NO3

>  <Charge>  (55) 
0

>  <Mass>  (55) 
323.47020

>  <Monoisotopic Mass>  (55) 
323.24604

>  <Synonyms>  (55) 
O-[(9Z)-hexadecenoyl]serine residue
O-palmitoleoyl-L-serine residue

>  <PubChem Database Links>  (55) 
SID: 249807139

>  <Rhea Database Links>  (55) 
RHEA:45336
RHEA:45340

>  <Last Modified>  (55) 
27 Jul 2015

$$$$

     RDKit          2D

  9  9  0  0  0  0  0  0  0  0999 V2000
   -2.8926   -0.4482    0.0000 N   0  0  0  0  0  0  0  0  0  0  0  0
   -2.2252    0.0367    0.0000 C   0  0  0  0  0  0  0  0  0  0  0  0
   -2.4801    0.8213    0.0000 C   0  0  0  0  0  0  0  0  0  0  0  0
   -3.3051    0.8213    0.0000 C   0  0  0  0  0  0  0  0  0  0  0  0
   -3.5600    0.0367    0.0000 C   0  0  0  0  0  0  0  0  0  0  0  0
   -1.4283   -0.1768    0.0000 C   0  0  0  0  0  0  0  0  0  0  0  0
   -0.8449    0.4066    0.0000 O   0  0  0  0  0  0  0  0  0  0  0  0
   -1.2148   -0.9737    0.0000 O   0  0  0  0  0  0  0  0  0  0  0  0
   -1.8967    1.4047    0.0000 O   0  0  0  0  0  0  0  0  0  0  0  0
  1  2  1  0
  2  3  1  0
  3  4  1  0
  4  5  1  0
  1  5  1  0
  2  6  1  1
  6  7  2  0
  6  8  1  0
  3  9  1  6
V    8 *
M  END
>  <ChEBI ID>  (56) 
CHEBI:85428

>  <ChEBI Name>  (56) 
trans-3-hydroxy-L-proline residue

>  <Star>  (56) 
3

>  <Definition>  (56) 
An alpha-amino-acid residue derived from trans-3-hydroxy-L-proline.

>  <SMILES>  (56) 
N1([C@@H]([C@H](CC1)O)C(=O)*)*

>  <Formulae>  (56) 
C5H7NO2

>  <Charge>  (56) 
0

>  <Mass>  (56) 
113.11460

>  <Monoisotopic Mass>  (56) 
113.04768

>  <Synonyms>  (56) 
trans-3-hydroxy-L-proline residue

>  <PubMed citation Links>  (56) 
24550462

>  <PubChem Database Links>  (56) 
SID: 252149798

>  <Rhea Database Links>  (56) 
RHEA:54156
RHEA:45792
RHEA:22872
RHEA:54160

>  <Last Modified>  (56) 
27 Jul 2015

$$$$

     RDKit          2D

  7  6  0  0  1  0  0  0  0  0999 V2000
    8.0479   -6.4632    0.0000 C   0  0  0  0  0  0  0  0  0  0  0  0
    7.1817   -6.9632    0.0000 C   0  0  0  0  0  0  0  0  0  0  0  0
    8.9139   -6.9632    0.0000 O   0  0  0  0  0  0  0  0  0  0  0  0
    8.0479   -5.4630    0.0000 O   0  0  0  0  0  0  0  0  0  0  0  0
    7.1817   -7.9634    0.0000 N   0  0  0  0  0  0  0  0  0  0  0  0
    6.3154   -5.4630    0.0000 O   0  0  0  0  0  0  0  0  0  0  0  0
    6.3154   -6.4632    0.0000 C   0  0  0  0  0  0  0  0  0  0  0  0
  2  1  1  0
  4  1  2  0
  3  1  1  0
  2  7  1  0
  2  5  1  1
  7  6  2  0
V    3 *
M  END
>  <ChEBI ID>  (57) 
CHEBI:85621

>  <ChEBI Name>  (57) 
L-3-oxoalanine residue

>  <Star>  (57) 
3

>  <Definition>  (57) 
An L-alpha-amino acid residue derived from L-3-oxoalanine.

>  <SMILES>  (57) 
C([C@H](C(=O)[H])N*)(=O)*

>  <Formulae>  (57) 
C3H3NO2

>  <Charge>  (57) 
0

>  <Mass>  (57) 
85.062

>  <Monoisotopic Mass>  (57) 
85.01638

>  <Synonyms>  (57) 
L-3-oxoalanine residue

>  <PubMed citation Links>  (57) 
18004875

>  <PubChem Database Links>  (57) 
SID: 315492287

>  <Rhea Database Links>  (57) 
RHEA:61592
RHEA:17609
RHEA:51152

>  <Last Modified>  (57) 
04 Sep 2017

$$$$

     RDKit          2D

 22 21  0  0  1  0  0  0  0  0999 V2000
    0.8807    0.4870    0.0000 C   0  0  0  0  0  0  0  0  0  0  0  0
    0.0147   -0.0130    0.0000 C   0  0  0  0  0  0  0  0  0  0  0  0
    0.0147   -1.0130    0.0000 N   0  0  0  0  0  0  0  0  0  0  0  0
   -0.8513    0.4872    0.0000 C   0  0  0  0  0  0  0  0  0  0  0  0
   -1.7173   -0.0128    0.0000 S   0  0  0  0  0  0  0  0  0  0  0  0
    0.8807    1.4871    0.0000 O   0  0  0  0  0  0  0  0  0  0  0  0
    1.7468   -0.0130    0.0000 O   0  0  0  0  0  0  0  0  0  0  0  0
   -2.5834    0.4872    0.0000 C   0  0  0  0  0  0  0  0  0  0  0  0
   -3.4493   -0.0128    0.0000 C   0  0  0  0  0  0  0  0  0  0  0  0
   -4.3154    0.4872    0.0000 C   0  0  0  0  0  0  0  0  0  0  0  0
   -5.1814   -0.0127    0.0000 C   0  0  0  0  0  0  0  0  0  0  0  0
   -6.0474    0.4873    0.0000 C   0  0  0  0  0  0  0  0  0  0  0  0
   -6.9134   -0.0127    0.0000 C   0  0  0  0  0  0  0  0  0  0  0  0
   -7.7795    0.4873    0.0000 C   0  0  0  0  0  0  0  0  0  0  0  0
   -8.6456   -0.0127    0.0000 C   0  0  0  0  0  0  0  0  0  0  0  0
   -9.5115    0.4873    0.0000 C   0  0  0  0  0  0  0  0  0  0  0  0
  -10.3776   -0.0127    0.0000 C   0  0  0  0  0  0  0  0  0  0  0  0
  -11.2436    0.4873    0.0000 C   0  0  0  0  0  0  0  0  0  0  0  0
  -12.1097   -0.0126    0.0000 C   0  0  0  0  0  0  0  0  0  0  0  0
  -11.2436    1.4873    0.0000 C   0  0  0  0  0  0  0  0  0  0  0  0
   -7.7795    1.4873    0.0000 C   0  0  0  0  0  0  0  0  0  0  0  0
   -4.3154    1.4871    0.0000 C   0  0  0  0  0  0  0  0  0  0  0  0
  1  6  2  0
  7  1  1  0
  2  1  1  0
  2  3  1  1
  2  4  1  0
  4  5  1  0
  5  8  1  0
  8  9  1  0
  9 10  2  0
 10 11  1  0
 11 12  1  0
 12 13  1  0
 13 14  2  0
 14 15  1  0
 15 16  1  0
 16 17  1  0
 17 18  2  3
 18 19  1  0
 18 20  1  0
 14 21  1  0
 10 22  1  0
V    7 *
M  END
>  <ChEBI ID>  (58) 
CHEBI:86019

>  <ChEBI Name>  (58) 
S-[(2E,6E)-farnesyl]-L-cysteine residue

>  <Star>  (58) 
3

>  <Definition>  (58) 
An alpha-amino-acid residue derived from S-[(2E,6E)-farnesyl]-L-cysteine

>  <SMILES>  (58) 
CC(C)=CCC\C(C)=C\CC\C(C)=C\CSC[C@H](N-*)C(-*)=O

>  <Formulae>  (58) 
C18H29NOS

>  <Charge>  (58) 
0

>  <Mass>  (58) 
307.49400

>  <Monoisotopic Mass>  (58) 
307.19699

>  <Synonyms>  (58) 
S-(2E,6E)-farnesyl-L-cysteine residue
S-(2E,6E)-farnesylcysteine residue
S-farnesyl-L-cysteine residue
S-farnesylcysteine residue

>  <PubChem Database Links>  (58) 
SID: 252150517

>  <Reactome Database Links>  (58) 
R-HSA-6788650

>  <Rhea Database Links>  (58) 
RHEA:59768
RHEA:59800
RHEA:59764
RHEA:13345
RHEA:59796

>  <Last Modified>  (58) 
12 Aug 2015

$$$$

     RDKit          2D

 27 26  0  0  1  0  0  0  0  0999 V2000
    0.8807    0.4870    0.0000 C   0  0  0  0  0  0  0  0  0  0  0  0
    0.0147   -0.0130    0.0000 C   0  0  0  0  0  0  0  0  0  0  0  0
    0.0147   -1.0130    0.0000 N   0  0  0  0  0  0  0  0  0  0  0  0
   -0.8513    0.4872    0.0000 C   0  0  0  0  0  0  0  0  0  0  0  0
   -1.7173   -0.0128    0.0000 S   0  0  0  0  0  0  0  0  0  0  0  0
    0.8807    1.4872    0.0000 O   0  0  0  0  0  0  0  0  0  0  0  0
    1.7468   -0.0130    0.0000 O   0  0  0  0  0  0  0  0  0  0  0  0
   -2.5834    0.4872    0.0000 C   0  0  0  0  0  0  0  0  0  0  0  0
   -3.4493   -0.0128    0.0000 C   0  0  0  0  0  0  0  0  0  0  0  0
   -4.3154    0.4872    0.0000 C   0  0  0  0  0  0  0  0  0  0  0  0
   -5.1815   -0.0127    0.0000 C   0  0  0  0  0  0  0  0  0  0  0  0
   -6.0474    0.4873    0.0000 C   0  0  0  0  0  0  0  0  0  0  0  0
   -6.9135   -0.0127    0.0000 C   0  0  0  0  0  0  0  0  0  0  0  0
   -7.7795    0.4873    0.0000 C   0  0  0  0  0  0  0  0  0  0  0  0
   -8.6455   -0.0127    0.0000 C   0  0  0  0  0  0  0  0  0  0  0  0
   -9.5114    0.4873    0.0000 C   0  0  0  0  0  0  0  0  0  0  0  0
  -10.3775   -0.0127    0.0000 C   0  0  0  0  0  0  0  0  0  0  0  0
  -11.2436    0.4873    0.0000 C   0  0  0  0  0  0  0  0  0  0  0  0
  -12.1096   -0.0126    0.0000 C   0  0  0  0  0  0  0  0  0  0  0  0
  -11.2436    1.4873    0.0000 C   0  0  0  0  0  0  0  0  0  0  0  0
   -7.7795    1.4873    0.0000 C   0  0  0  0  0  0  0  0  0  0  0  0
   -4.3154    1.4872    0.0000 C   0  0  0  0  0  0  0  0  0  0  0  0
  -12.9756    0.4874    0.0000 C   0  0  0  0  0  0  0  0  0  0  0  0
  -13.8416   -0.0126    0.0000 C   0  0  0  0  0  0  0  0  0  0  0  0
  -14.7077    0.4874    0.0000 C   0  0  0  0  0  0  0  0  0  0  0  0
  -15.5736   -0.0126    0.0000 C   0  0  0  0  0  0  0  0  0  0  0  0
  -14.7076    1.4874    0.0000 C   0  0  0  0  0  0  0  0  0  0  0  0
  1  6  2  0
  7  1  1  0
  2  1  1  0
  2  3  1  1
  2  4  1  0
  4  5  1  0
  5  8  1  0
  8  9  1  0
  9 10  2  0
 10 11  1  0
 11 12  1  0
 12 13  1  0
 13 14  2  0
 14 15  1  0
 15 16  1  0
 16 17  1  0
 17 18  2  0
 18 19  1  0
 18 20  1  0
 14 21  1  0
 10 22  1  0
 19 23  1  0
 23 24  1  0
 24 25  2  3
 25 26  1  0
 25 27  1  0
V    7 *
M  END
>  <ChEBI ID>  (59) 
CHEBI:86021

>  <ChEBI Name>  (59) 
S-geranylgeranyl-L-cysteine residue

>  <Star>  (59) 
3

>  <Definition>  (59) 
An alpha-amino-acid residue derived from S-geranylgeranyl-L-cysteine

>  <SMILES>  (59) 
CC(C)=CCC\C(C)=C\CC\C(C)=C\CC\C(C)=C\CSC[C@H](N-*)C(-*)=O

>  <Formulae>  (59) 
C23H37NOS

>  <Charge>  (59) 
0

>  <Mass>  (59) 
375.61100

>  <Monoisotopic Mass>  (59) 
375.25959

>  <Synonyms>  (59) 
S-geranylgeranyl-L-cysteine residue
S-geranylgeranylcysteine residue

>  <PubChem Database Links>  (59) 
SID: 252150519

>  <Rhea Database Links>  (59) 
RHEA:21240

>  <Last Modified>  (59) 
27 Jul 2015

$$$$

     RDKit          2D

 11 10  0  0  0  0  0  0  0  0999 V2000
   14.4551   -6.8220    0.0000 C   0  0  0  0  0  0  0  0  0  0  0  0
   13.5891   -7.3220    0.0000 C   0  0  0  0  0  0  0  0  0  0  0  0
   12.7231   -6.8220    0.0000 C   0  0  0  0  0  0  0  0  0  0  0  0
   15.3211   -7.3220    0.0000 O   0  0  0  0  0  0  0  0  0  0  0  0
   14.4551   -5.8220    0.0000 O   0  0  0  0  0  0  0  0  0  0  0  0
   13.5891   -8.3219    0.0000 N   0  0  0  0  0  0  0  0  0  0  0  0
   11.8572   -7.3220    0.0000 S   0  0  0  0  0  0  0  0  0  0  0  0
   10.9911   -6.8220    0.0000 S   0  0  0  0  0  0  0  0  0  0  0  0
   10.1251   -7.3220    0.0000 O   0  0  0  0  0  0  0  0  0  0  0  0
   11.4911   -5.9560    0.0000 O   0  0  0  0  0  0  0  0  0  0  0  0
   10.4911   -5.9560    0.0000 O   0  0  0  0  0  0  0  0  0  0  0  0
  2  1  1  0
  5  1  2  0
  4  1  1  0
  2  3  1  0
  2  6  1  1
  7  3  1  0
  7  8  1  0
  8  9  1  0
  8 10  2  0
  8 11  2  0
V    4 *
M  END
>  <ChEBI ID>  (60) 
CHEBI:87169

>  <ChEBI Name>  (60) 
S-sulfo-L-cysteine(1-) residue

>  <Star>  (60) 
3

>  <Definition>  (60) 
An alpha-amino-acid residue anion obtained by deprotonation of the sulfo group of S-sulfo-L-cysteine residue; major species at pH 7.3.

>  <SMILES>  (60) 
[O-]S(=O)(=O)SC[C@H](N-*)C(-*)=O

>  <Formulae>  (60) 
C3H4NO4S2

>  <Charge>  (60) 
-1

>  <Mass>  (60) 
182.19900

>  <Monoisotopic Mass>  (60) 
181.95817

>  <Synonyms>  (60) 
S-sulfo-L-cysteine residue

>  <PubChem Database Links>  (60) 
SID: 252162902

>  <Rhea Database Links>  (60) 
RHEA:47024
RHEA:47028

>  <Last Modified>  (60) 
12 Aug 2015

$$$$

     RDKit          2D

  9  9  0  0  1  0  0  0  0  0999 V2000
   12.2694   -9.4376    0.0000 C   0  0  0  0  0  0  0  0  0  0  0  0
   13.0784  -10.0253    0.0000 N   0  0  0  0  0  0  0  0  0  0  0  0
   12.5783   -8.4865    0.0000 C   0  0  0  0  0  0  0  0  0  0  0  0
   13.5783   -8.4865    0.0000 C   0  0  0  0  0  0  0  0  0  0  0  0
   14.8383   -9.7466    0.0000 C   0  0  0  0  0  0  0  0  0  0  0  0
   15.5816   -9.0773    0.0000 O   0  0  0  0  0  0  0  0  0  0  0  0
   15.0463  -10.7247    0.0000 O   0  0  0  0  0  0  0  0  0  0  0  0
   11.3184   -9.7467    0.0000 O   0  0  0  0  0  0  0  0  0  0  0  0
   13.8873   -9.4375    0.0000 C   0  0  0  0  0  0  0  0  0  0  0  0
  2  1  1  0
  3  1  1  0
  9  2  1  0
  4  3  1  0
  4  9  1  0
  6  5  2  0
  7  5  1  0
  9  5  1  1
  8  1  2  0
V    7 *
M  END
>  <ChEBI ID>  (61) 
CHEBI:87215

>  <ChEBI Name>  (61) 
N-terminal 5-oxo-L-proline residue

>  <Star>  (61) 
3

>  <Definition>  (61) 
An N-terminal alpha-amino-acid residue derived from 5-oxo-L-proline.

>  <SMILES>  (61) 
*-C(=O)[C@@H]1CCC(=O)N1

>  <Formulae>  (61) 
C5H6NO2

>  <Charge>  (61) 
0

>  <Mass>  (61) 
112.10660

>  <Monoisotopic Mass>  (61) 
112.03985

>  <Synonyms>  (61) 
N-terminal 5-oxo-L-proline residue

>  <PubChem Database Links>  (61) 
SID: 252162850

>  <Rhea Database Links>  (61) 
RHEA:23652

>  <Last Modified>  (61) 
17 Aug 2015

$$$$

     RDKit          2D

 18 17  0  0  1  0  0  0  0  0999 V2000
   11.1202   -6.2599    0.0000 C   0  0  0  0  0  0  0  0  0  0  0  0
   11.9881   -6.7644    0.0000 O   0  0  0  0  0  0  0  0  0  0  0  0
   10.2525   -6.7644    0.0000 C   0  0  0  0  0  0  0  0  0  0  0  0
   11.1202   -5.2710    0.0000 O   0  0  0  0  0  0  0  0  0  0  0  0
   10.2727   -7.7531    0.0000 N   0  0  0  0  0  0  0  0  0  0  0  0
    5.9340   -6.2599    0.0000 N   0  0  0  0  0  0  0  0  0  0  0  0
    6.8018   -6.7442    0.0000 C   0  0  0  0  0  0  0  0  0  0  0  0
    9.4049   -6.2599    0.0000 C   0  0  0  0  0  0  0  0  0  0  0  0
    7.6694   -6.2599    0.0000 C   0  0  0  0  0  0  0  0  0  0  0  0
    8.5372   -6.7644    0.0000 C   0  0  0  0  0  0  0  0  0  0  0  0
    5.0721   -6.7744    0.0000 C   0  0  0  0  0  0  0  0  0  0  0  0
    4.1957   -6.2852    0.0000 C   0  0  0  0  0  0  0  0  0  0  0  0
    5.0867   -7.7779    0.0000 O   0  0  0  0  0  0  0  0  0  0  0  0
    3.3338   -6.7996    0.0000 C   0  0  0  0  0  0  0  0  0  0  0  0
    2.4574   -6.3104    0.0000 C   0  0  0  0  0  0  0  0  0  0  0  0
    1.5956   -6.8249    0.0000 C   0  0  0  0  0  0  0  0  0  0  0  0
    0.7191   -6.3357    0.0000 O   0  0  0  0  0  0  0  0  0  0  0  0
    1.6102   -7.8284    0.0000 O   0  0  0  0  0  0  0  0  0  0  0  0
  2  1  1  0
  3  1  1  0
  4  1  2  0
  3  5  1  1
  3  8  1  0
  7  6  1  0
  9  7  1  0
 10  8  1  0
 10  9  1  0
  6 11  1  0
 11 12  1  0
 11 13  2  0
 12 14  1  0
 14 15  1  0
 15 16  1  0
 16 17  1  0
 16 18  2  0
V    2 *
M  END
>  <ChEBI ID>  (62) 
CHEBI:87828

>  <ChEBI Name>  (62) 
N(6)-glutaryl-L-lysine(1-) residue

>  <Star>  (62) 
3

>  <Definition>  (62) 
An anionic amino-acid residue obtained by deprotonation of the free carboxy group of N(6)-glutaryl-L-lysine residue; major species at pH 7.3.

>  <SMILES>  (62) 
C(*)([C@@H](N*)CCCCNC(CCCC([O-])=O)=O)=O

>  <Formulae>  (62) 
C11H17N2O4

>  <Charge>  (62) 
-1

>  <Mass>  (62) 
241.264

>  <Monoisotopic Mass>  (62) 
241.11883

>  <Synonyms>  (62) 
N(6)-glutaryl-L-lysine residue
N(6)-glutaryllysine(1-) residue

>  <PubMed citation Links>  (62) 
24703693

>  <PubChem Database Links>  (62) 
SID: 253662806

>  <Rhea Database Links>  (62) 
RHEA:18009
RHEA:47664

>  <Last Modified>  (62) 
07 Oct 2015

$$$$

     RDKit          2D

 16 15  0  0  1  0  0  0  0  0999 V2000
   11.1254   -6.2628    0.0000 C   0  0  0  0  0  0  0  0  0  0  0  0
   11.9936   -6.7676    0.0000 O   0  0  0  0  0  0  0  0  0  0  0  0
   10.2573   -6.7676    0.0000 C   0  0  0  0  0  0  0  0  0  0  0  0
   11.1254   -5.2735    0.0000 O   0  0  0  0  0  0  0  0  0  0  0  0
   10.2775   -7.7567    0.0000 N   0  0  0  0  0  0  0  0  0  0  0  0
    5.9367   -6.2628    0.0000 N   0  0  0  0  0  0  0  0  0  0  0  0
    6.8049   -6.7473    0.0000 C   0  0  0  0  0  0  0  0  0  0  0  0
    9.4093   -6.2628    0.0000 C   0  0  0  0  0  0  0  0  0  0  0  0
    7.6730   -6.2628    0.0000 C   0  0  0  0  0  0  0  0  0  0  0  0
    8.5412   -6.7676    0.0000 C   0  0  0  0  0  0  0  0  0  0  0  0
    5.0745   -6.7775    0.0000 C   0  0  0  0  0  0  0  0  0  0  0  0
    4.1976   -6.2881    0.0000 C   0  0  0  0  0  0  0  0  0  0  0  0
    5.0891   -7.7816    0.0000 O   0  0  0  0  0  0  0  0  0  0  0  0
    3.3354   -6.8027    0.0000 C   0  0  0  0  0  0  0  0  0  0  0  0
    2.4585   -6.3133    0.0000 O   0  0  0  0  0  0  0  0  0  0  0  0
    3.3500   -7.8068    0.0000 O   0  0  0  0  0  0  0  0  0  0  0  0
  2  1  1  0
  3  1  1  0
  4  1  2  0
  3  5  1  1
  3  8  1  0
  7  6  1  0
  9  7  1  0
 10  8  1  0
 10  9  1  0
  6 11  1  0
 11 12  1  0
 11 13  2  0
 12 14  1  0
 14 15  1  0
 14 16  2  0
V    2 *
M  END
>  <ChEBI ID>  (63) 
CHEBI:87831

>  <ChEBI Name>  (63) 
N(6)-malonyl-L-lysine(1-) residue

>  <Star>  (63) 
3

>  <Definition>  (63) 
An anionic amino-acid residue obtained by deprotonation of the free carboxy group of N(6)-malonyl-L-lysine residue; major species at pH 7.3.

>  <SMILES>  (63) 
C(*)([C@@H](N*)CCCCNC(CC([O-])=O)=O)=O

>  <Formulae>  (63) 
C9H13N2O4

>  <Charge>  (63) 
-1

>  <Mass>  (63) 
213.211

>  <Monoisotopic Mass>  (63) 
213.08753

>  <Synonyms>  (63) 
N(6)-malonyl-L-lysine residue
N(6)-malonyllysine(1-) residue

>  <PubMed citation Links>  (63) 
21908771
22076378

>  <PubChem Database Links>  (63) 
SID: 253662809

>  <Rhea Database Links>  (63) 
RHEA:47672

>  <Last Modified>  (63) 
07 Oct 2015

$$$$

     RDKit          2D

 14 13  0  0  0  0  0  0  0  0999 V2000
   10.3992  -13.5143    0.0000 C   0  0  0  0  0  0  0  0  0  0  0  0
    9.5333  -14.0143    0.0000 N   0  0  0  0  0  0  0  0  0  0  0  0
   12.9972  -14.0143    0.0000 C   0  0  0  0  0  0  0  0  0  0  0  0
   12.1314  -13.5143    0.0000 C   0  0  0  0  0  0  0  0  0  0  0  0
   11.2652  -14.0143    0.0000 C   0  0  0  0  0  0  0  0  0  0  0  0
    8.6672  -13.5143    0.0000 C   0  0  0  0  0  0  0  0  0  0  0  0
   13.8633  -13.5143    0.0000 C   0  0  0  0  0  0  0  0  0  0  0  0
    8.6672  -12.5143    0.0000 N   0  0  0  0  0  0  0  0  0  0  0  0
   13.8633  -12.5143    0.0000 O   0  0  0  0  0  0  0  0  0  0  0  0
    7.8011  -14.0143    0.0000 N   0  0  0  0  0  0  0  0  0  0  0  0
   12.9972  -15.0142    0.0000 N   0  0  0  0  0  0  0  0  0  0  0  0
   14.7293  -14.0143    0.0000 O   0  0  0  0  0  0  0  0  0  0  0  0
    7.8011  -12.0143    0.0000 C   0  0  0  0  0  0  0  0  0  0  0  0
    6.9351  -13.5143    0.0000 C   0  0  0  0  0  0  0  0  0  0  0  0
  2  1  1  0
  6  2  1  0
  7  3  1  0
  3 11  1  1
  3  4  1  0
  1  5  1  0
  4  5  1  0
  6  8  2  0
  6 10  1  0
  7  9  2  0
 12  7  1  0
  8 13  1  0
 10 14  1  0
V   12 *
M  END
>  <ChEBI ID>  (64) 
CHEBI:88221

>  <ChEBI Name>  (64) 
N(omega),N('omega)-dimethyl-L-arginine(1+) residue

>  <Star>  (64) 
3

>  <Definition>  (64) 
An alpha-amino-acid residue cation obtained by protonation of the guanidino group of N(omega),N('omega)-dimethyl-L-arginine residue.

>  <SMILES>  (64) 
C(N/C(=[NH+]/C)/NC)CC[C@@H](C(=O)*)N*

>  <Formulae>  (64) 
C8H17N4O

>  <Charge>  (64) 
+1

>  <Mass>  (64) 
185.247

>  <Monoisotopic Mass>  (64) 
185.14024

>  <Synonyms>  (64) 
N(omega),N(omega)'-dimethyl-L-arginine residue

>  <MetaCyc Database Links>  (64) 
Protein-N-Nprime-omega-dimethyl-arginine

>  <PubChem Database Links>  (64) 
SID: 255509974

>  <Rhea Database Links>  (64) 
RHEA:58348
RHEA:48112
RHEA:58472
RHEA:48108

>  <Last Modified>  (64) 
09 Nov 2015

$$$$

     RDKit          2D

 33 35  0  0  0  0  0  0  0  0999 V2000
   -0.8661   -0.5000    0.0000 C   0  0  0  0  0  0  0  0  0  0  0  0
   -0.8661    0.5000    0.0000 C   0  0  0  0  0  0  0  0  0  0  0  0
    0.0000   -1.0000    0.0000 N   0  0  0  0  0  0  0  0  0  0  0  0
    0.8661   -0.5000    0.0000 C   0  0  0  0  0  0  0  0  0  0  0  0
    0.8661    0.5000    0.0000 N   0  0  0  0  0  0  0  0  0  0  0  0
    0.0000    1.0000    0.0000 C   0  0  0  0  0  0  0  0  0  0  0  0
    0.0000   -2.0000    0.0000 C   0  0  0  0  0  0  0  0  0  0  0  0
   -0.8090   -2.5878    0.0000 O   0  0  0  0  0  0  0  0  0  0  0  0
   -0.5000   -3.5388    0.0000 C   0  0  0  0  0  0  0  0  0  0  0  0
    0.5000   -3.5388    0.0000 C   0  0  0  0  0  0  0  0  0  0  0  0
    1.7321   -1.0000    0.0000 O   0  0  0  0  0  0  0  0  0  0  0  0
    1.0878   -4.3478    0.0000 O   0  0  0  0  0  0  0  0  0  0  0  0
   -3.7857   -4.0890    0.0000 O   0  0  0  0  0  0  0  0  0  0  0  0
   -2.9198   -5.5890    0.0000 O   0  0  0  0  0  0  0  0  0  0  0  0
   -2.9198   -3.5890    0.0000 O   0  0  0  0  0  0  0  0  0  0  0  0
   -2.9198   -4.5890    0.0000 P   0  0  0  0  0  0  0  0  0  0  0  0
   -2.0537   -4.0890    0.0000 O   0  0  0  0  0  0  0  0  0  0  0  0
   -1.0878   -4.3478    0.0000 C   0  0  0  0  0  0  0  0  0  0  0  0
    0.0000    2.0000    0.0000 O   0  0  0  0  0  0  0  0  0  0  0  0
    0.8091   -2.5878    0.0000 C   0  0  0  0  0  0  0  0  0  0  0  0
    1.7750   -2.3290    0.0000 O   0  0  0  0  0  0  0  0  0  0  0  0
   -4.6518   -4.5890    0.0000 C   0  0  0  0  0  0  0  0  0  0  0  0
   -5.5177   -4.0890    0.0000 C   0  0  0  0  0  0  0  0  0  0  0  0
   -6.3838   -4.5890    0.0000 C   0  0  0  0  0  0  0  0  0  0  0  0
   -6.3838   -5.5890    0.0000 C   0  0  0  0  0  0  0  0  0  0  0  0
   -5.5177   -6.0890    0.0000 C   0  0  0  0  0  0  0  0  0  0  0  0
   -4.6518   -5.5890    0.0000 C   0  0  0  0  0  0  0  0  0  0  0  0
   -7.2498   -6.0890    0.0000 C   0  0  0  0  0  0  0  0  0  0  0  0
   -7.2498   -7.0890    0.0000 C   0  0  0  0  0  0  0  0  0  0  0  0
   -8.1159   -7.5890    0.0000 N   0  0  0  0  0  0  0  0  0  0  0  0
   -6.3838   -7.5890    0.0000 C   0  0  0  0  0  0  0  0  0  0  0  0
   -6.3838   -8.5890    0.0000 O   0  0  0  0  0  0  0  0  0  0  0  0
   -5.5177   -7.0890    0.0000 O   0  0  0  0  0  0  0  0  0  0  0  0
  1  2  2  0
  3  1  1  0
  7  3  1  1
  3  4  1  0
  4 11  2  0
  4  5  1  0
  2  6  1  0
  5  6  1  0
  6 19  2  0
  7  8  1  0
 20  7  1  0
  9  8  1  0
 10 20  1  0
  9 18  1  1
 10  9  1  0
 10 12  1  6
 13 16  1  0
 16 14  2  0
 16 15  1  0
 16 17  1  0
 18 17  1  0
 20 21  1  6
 13 22  1  0
 23 24  2  0
 24 25  1  0
 25 26  2  0
 26 27  1  0
 27 22  2  0
 23 22  1  0
 25 28  1  0
 29 30  1  1
 29 31  1  0
 31 32  2  0
 31 33  1  0
 29 28  1  0
V   33 *
M  END
>  <ChEBI ID>  (65) 
CHEBI:90602

>  <ChEBI Name>  (65) 
uridylyl-L-tyrosine(1-) residue

>  <Star>  (65) 
3

>  <Definition>  (65) 
An alpha-amino-acid residue anion obtained by deprotonation of the phosphate OH group of uridylyl-L-tyrosine residue; major species at pH 7.3.

>  <SMILES>  (65) 
C1=CC(NC(N1[C@@H]2O[C@H](COP(OC3=CC=C(C=C3)C[C@H](N*)C(=O)*)(=O)[O-])[C@H]([C@H]2O)O)=O)=O

>  <Formulae>  (65) 
C18H19N3O10P

>  <Charge>  (65) 
-1

>  <Mass>  (65) 
468.332

>  <Monoisotopic Mass>  (65) 
468.08081

>  <Synonyms>  (65) 
uridylyl-L-tyrosine residue

>  <PubChem Database Links>  (65) 
SID: 276246446

>  <Rhea Database Links>  (65) 
RHEA:13673
RHEA:48600

>  <Last Modified>  (65) 
18 Nov 2016

$$$$

     RDKit          2D

 15 15  0  0  0  0  0  0  0  0999 V2000
    2.1937    1.7707    0.0000 O   0  0  0  0  0  0  0  0  0  0  0  0
    2.1937    0.7707    0.0000 C   0  0  0  0  0  0  0  0  0  0  0  0
    1.3276    0.2707    0.0000 C   0  0  0  0  0  0  0  0  0  0  0  0
    0.4617    0.7707    0.0000 C   0  0  0  0  0  0  0  0  0  0  0  0
   -0.4044    0.2707    0.0000 C   0  0  0  0  0  0  0  0  0  0  0  0
   -0.4044   -0.7293    0.0000 C   0  0  0  0  0  0  0  0  0  0  0  0
   -1.2704    0.7707    0.0000 C   0  0  0  0  0  0  0  0  0  0  0  0
   -2.1364    0.2707    0.0000 C   0  0  0  0  0  0  0  0  0  0  0  0
   -1.2704   -1.2293    0.0000 C   0  0  0  0  0  0  0  0  0  0  0  0
   -2.1364   -0.7293    0.0000 C   0  0  0  0  0  0  0  0  0  0  0  0
   -3.0024   -1.2293    0.0000 O   0  0  0  0  0  0  0  0  0  0  0  0
    1.3276   -0.7293    0.0000 N   0  0  0  0  0  0  0  0  0  0  0  0
    3.0598    0.2707    0.0000 O   0  0  0  0  0  0  0  0  0  0  0  0
   -3.0024    0.7707    0.0000 I   0  0  0  0  0  0  0  0  0  0  0  0
   -1.2704   -2.2293    0.0000 I   0  0  0  0  0  0  0  0  0  0  0  0
  2  1  2  0
 13  2  1  0
  3  2  1  0
  3 12  1  1
  3  4  1  0
  5  4  1  0
  6  5  2  0
  7  5  1  0
  8  7  2  0
  9  6  1  0
 10  8  1  0
  9 10  2  0
 11 10  1  0
  8 14  1  0
  9 15  1  0
V   13 *
M  END
>  <ChEBI ID>  (66) 
CHEBI:90871

>  <ChEBI Name>  (66) 
3,5-diiodo-L-tyrosine residue

>  <Star>  (66) 
3

>  <Definition>  (66) 
An L-alpha-amino-acid residue derived from 3,5-diiodo-L-tyrosine.

>  <SMILES>  (66) 
O=C(*)[C@@H](N*)CC1=CC(=C(C(=C1)I)O)I

>  <Formulae>  (66) 
C9H7I2NO2

>  <Charge>  (66) 
0

>  <Mass>  (66) 
414.967

>  <Monoisotopic Mass>  (66) 
414.85662

>  <Synonyms>  (66) 
3,5-diiodo-L-tyrosine residue

>  <PubChem Database Links>  (66) 
SID: 312530969

>  <Rhea Database Links>  (66) 
RHEA:48960
RHEA:48964
RHEA:48968

>  <Last Modified>  (66) 
22 Feb 2016

$$$$

     RDKit          2D

 24 25  0  0  0  0  0  0  0  0999 V2000
    1.5815    0.3913    0.0000 C   0  0  0  0  0  0  0  0  0  0  0  0
    1.5815   -0.6087    0.0000 C   0  0  0  0  0  0  0  0  0  0  0  0
    0.7154   -1.1087    0.0000 C   0  0  0  0  0  0  0  0  0  0  0  0
   -0.1507   -0.6087    0.0000 C   0  0  0  0  0  0  0  0  0  0  0  0
   -0.1507    0.3913    0.0000 C   0  0  0  0  0  0  0  0  0  0  0  0
    0.7154    0.8913    0.0000 C   0  0  0  0  0  0  0  0  0  0  0  0
    4.1795    0.8913    0.0000 C   0  0  0  0  0  0  0  0  0  0  0  0
    4.1795    1.8913    0.0000 O   0  0  0  0  0  0  0  0  0  0  0  0
    3.3135    0.3913    0.0000 C   0  0  0  0  0  0  0  0  0  0  0  0
    2.4475    0.8913    0.0000 C   0  0  0  0  0  0  0  0  0  0  0  0
    3.3135   -0.6087    0.0000 N   0  0  0  0  0  0  0  0  0  0  0  0
    5.0456    0.3913    0.0000 O   0  0  0  0  0  0  0  0  0  0  0  0
    0.7154   -2.1087    0.0000 I   0  0  0  0  0  0  0  0  0  0  0  0
   -1.0166   -1.1087    0.0000 O   0  0  0  0  0  0  0  0  0  0  0  0
   -4.4807    0.8913    0.0000 O   0  0  0  0  0  0  0  0  0  0  0  0
   -4.4807   -1.1087    0.0000 I   0  0  0  0  0  0  0  0  0  0  0  0
   -1.8827   -0.6087    0.0000 C   0  0  0  0  0  0  0  0  0  0  0  0
   -3.6147   -0.6087    0.0000 C   0  0  0  0  0  0  0  0  0  0  0  0
   -2.7487   -1.1087    0.0000 C   0  0  0  0  0  0  0  0  0  0  0  0
   -1.8827    0.3913    0.0000 C   0  0  0  0  0  0  0  0  0  0  0  0
   -3.6147    0.3913    0.0000 C   0  0  0  0  0  0  0  0  0  0  0  0
   -1.0166    0.8913    0.0000 I   0  0  0  0  0  0  0  0  0  0  0  0
   -2.7487    0.8913    0.0000 C   0  0  0  0  0  0  0  0  0  0  0  0
   -2.7487    1.8913    0.0000 I   0  0  0  0  0  0  0  0  0  0  0  0
  9  7  1  0
  8  7  2  0
 12  7  1  0
  9 10  1  0
  9 11  1  1
  1 10  1  0
  4 14  1  0
  2  1  2  0
  6  1  1  0
  5  4  1  0
  3  4  2  0
  3  2  1  0
  5  6  2  0
 13  3  1  0
 14 17  1  0
 21 15  1  0
 18 16  1  0
 19 17  1  0
 18 19  2  0
 17 20  2  0
 20 23  1  0
 23 21  2  0
 18 21  1  0
  5 22  1  0
 23 24  1  0
V   12 *
M  END
>  <ChEBI ID>  (67) 
CHEBI:90872

>  <ChEBI Name>  (67) 
L-thyroxine residue

>  <Star>  (67) 
3

>  <Definition>  (67) 
An L-alpha-amino-acid residue derived from L-thyroxine.

>  <SMILES>  (67) 
C1(C[C@@H](C(=O)*)N*)=CC(=C(OC2=CC(I)=C(O)C(=C2)I)C(=C1)I)I

>  <Formulae>  (67) 
C15H9I4NO3

>  <Charge>  (67) 
0

>  <Mass>  (67) 
758.855

>  <Monoisotopic Mass>  (67) 
758.67614

>  <Synonyms>  (67) 
L-thyroxine residue

>  <PubChem Database Links>  (67) 
SID: 312530970

>  <Rhea Database Links>  (67) 
RHEA:48964

>  <Last Modified>  (67) 
22 Feb 2016

$$$$

     RDKit          2D

  6  5  0  0  0  0  0  0  0  0999 V2000
    2.1937    1.7707    0.0000 O   0  0  0  0  0  0  0  0  0  0  0  0
    2.1937    0.7707    0.0000 C   0  0  0  0  0  0  0  0  0  0  0  0
    1.3276    0.2707    0.0000 C   0  0  0  0  0  0  0  0  0  0  0  0
    0.4617    0.7707    0.0000 C   0  0  0  0  0  0  0  0  0  0  0  0
    1.3276   -0.7293    0.0000 N   0  0  0  0  0  0  0  0  0  0  0  0
    3.0597    0.2707    0.0000 O   0  0  0  0  0  0  0  0  0  0  0  0
  2  1  2  0
  6  2  1  0
  3  2  1  0
  3  5  1  0
  4  3  2  0
V    6 *
M  END
>  <ChEBI ID>  (68) 
CHEBI:90873

>  <ChEBI Name>  (68) 
dehydroalanine residue

>  <Star>  (68) 
3

>  <Definition>  (68) 
An alpha-amino-acid residue derived from 2-aminoacrylic acid (dehydroalanine).

>  <SMILES>  (68) 
O=C(*)C(N*)=C

>  <Formulae>  (68) 
C3H3NO

>  <Charge>  (68) 
0

>  <Mass>  (68) 
69.062

>  <Monoisotopic Mass>  (68) 
69.02146

>  <Synonyms>  (68) 
dehydroalanine residue

>  <PubChem Database Links>  (68) 
SID: 312530971

>  <Rhea Database Links>  (68) 
RHEA:48968
RHEA:54892
RHEA:54780
RHEA:54788
RHEA:55708
RHEA:48964
RHEA:54768

>  <Last Modified>  (68) 
22 Feb 2016

$$$$

     RDKit          2D

 23 24  0  0  0  0  0  0  0  0999 V2000
   10.4187   -7.8481    0.0000 C   0  0  0  0  0  0  0  0  0  0  0  0
    6.9769   -6.8376    0.0000 C   0  0  0  0  0  0  0  0  0  0  0  0
    7.8294   -6.3324    0.0000 C   0  0  0  0  0  0  0  0  0  0  0  0
    6.9769   -7.8481    0.0000 C   0  0  0  0  0  0  0  0  0  0  0  0
   10.4187   -6.8376    0.0000 C   0  0  0  0  0  0  0  0  0  0  0  0
   11.2712   -8.3532    0.0000 C   0  0  0  0  0  0  0  0  0  0  0  0
    8.6819   -7.8481    0.0000 C   0  0  0  0  0  0  0  0  0  0  0  0
    9.5346   -8.3532    0.0000 O   0  0  0  0  0  0  0  0  0  0  0  0
   14.7129   -6.3639    0.0000 C   0  0  0  0  0  0  0  0  0  0  0  0
    7.8294   -8.3532    0.0000 C   0  0  0  0  0  0  0  0  0  0  0  0
    8.6819   -6.8376    0.0000 C   0  0  0  0  0  0  0  0  0  0  0  0
   12.1237   -6.8376    0.0000 C   0  0  0  0  0  0  0  0  0  0  0  0
   13.8603   -6.8692    0.0000 C   0  0  0  0  0  0  0  0  0  0  0  0
   11.2712   -6.3324    0.0000 C   0  0  0  0  0  0  0  0  0  0  0  0
   12.1237   -7.8481    0.0000 C   0  0  0  0  0  0  0  0  0  0  0  0
   12.9762   -6.3324    0.0000 C   0  0  0  0  0  0  0  0  0  0  0  0
   15.5654   -6.8692    0.0000 O   0  0  0  0  0  0  0  0  0  0  0  0
    6.0928   -8.3532    0.0000 I   0  0  0  0  0  0  0  0  0  0  0  0
    9.5346   -6.3324    0.0000 I   0  0  0  0  0  0  0  0  0  0  0  0
   11.2712   -9.3320    0.0000 I   0  0  0  0  0  0  0  0  0  0  0  0
    6.0928   -6.3324    0.0000 O   0  0  0  0  0  0  0  0  0  0  0  0
   13.8603   -7.8481    0.0000 N   0  0  0  0  0  0  0  0  0  0  0  0
   14.7129   -5.3535    0.0000 O   0  0  0  0  0  0  0  0  0  0  0  0
  5  1  2  0
  6  1  1  0
  8  1  1  0
  3  2  2  0
 21  2  1  0
  4  2  1  0
 11  3  1  0
 10  4  2  0
 18  4  1  0
 14  5  1  0
 19  5  1  0
 15  6  2  0
 20  6  1  0
  8  7  1  0
 10  7  1  0
 11  7  2  0
 13  9  1  0
 17  9  1  0
 23  9  2  0
 15 12  1  0
 16 12  1  0
 14 12  2  0
 13 16  1  0
 13 22  1  1
V   17 *
M  END
>  <ChEBI ID>  (69) 
CHEBI:90874

>  <ChEBI Name>  (69) 
3,3',5-triiodo-L-thyronine residue

>  <Star>  (69) 
3

>  <Definition>  (69) 
An L-alpha-amino-acid residue derived from 3,3',5-triiodo-L-thyronine.

>  <SMILES>  (69) 
C1(=C(C=C(C=C1I)C[C@@H](C(*)=O)N*)I)OC=2C=C(C(=CC2)O)I

>  <Formulae>  (69) 
C15H10I3NO3

>  <Charge>  (69) 
0

>  <Mass>  (69) 
632.959

>  <Monoisotopic Mass>  (69) 
632.77949

>  <Synonyms>  (69) 
3,3',5-triiodo-L-thyronine residue

>  <PubChem Database Links>  (69) 
SID: 312530972

>  <Rhea Database Links>  (69) 
RHEA:48968

>  <Last Modified>  (69) 
22 Feb 2016

$$$$

     RDKit          2D

 16 15  0  0  1  0  0  0  0  0999 V2000
   15.6312   -4.0344    0.0000 O   0  0  0  0  0  0  0  0  0  0  0  0
   16.4973   -5.5345    0.0000 O   0  0  0  0  0  0  0  0  0  0  0  0
   15.6312   -5.0344    0.0000 C   0  0  0  0  0  0  0  0  0  0  0  0
   13.8993   -5.0344    0.0000 C   0  0  0  0  0  0  0  0  0  0  0  0
   13.0332   -5.5345    0.0000 C   0  0  0  0  0  0  0  0  0  0  0  0
   12.1673   -5.0344    0.0000 C   0  0  0  0  0  0  0  0  0  0  0  0
   14.7653   -5.5345    0.0000 C   0  0  0  0  0  0  0  0  0  0  0  0
   14.7653   -6.5344    0.0000 N   0  0  0  0  0  0  0  0  0  0  0  0
   11.3013   -5.5345    0.0000 C   0  0  0  0  0  0  0  0  0  0  0  0
   10.4353   -5.0344    0.0000 N   0  0  0  0  0  0  0  0  0  0  0  0
    9.5694   -5.5345    0.0000 C   0  0  0  0  0  0  0  0  0  0  0  0
    8.7034   -5.0344    0.0000 C   0  0  0  0  0  0  0  0  0  0  0  0
    7.8373   -5.5345    0.0000 C   0  0  0  0  0  0  0  0  0  0  0  0
    6.9713   -5.0344    0.0000 C   0  0  0  0  0  0  0  0  0  0  0  0
    6.1054   -5.5345    0.0000 N   0  0  0  0  0  0  0  0  0  0  0  0
    8.7034   -4.0344    0.0000 O   0  0  0  0  0  0  0  0  0  0  0  0
  3  1  2  0
  3  2  1  0
  3  7  1  0
  7  4  1  0
  4  5  1  0
  5  6  1  0
  6  9  1  0
  7  8  1  1
  9 10  1  0
 10 11  1  0
 11 12  1  0
 12 13  1  0
 13 14  1  0
 14 15  1  0
 12 16  1  1
V    2 *
M  END
>  <ChEBI ID>  (70) 
CHEBI:91175

>  <ChEBI Name>  (70) 
hypusine(2+) residue

>  <Star>  (70) 
3

>  <Definition>  (70) 
An alpha-amino-acid residue cation formed by protonation of the side-chain amino groups in the hypusine residue; major species at pH 7.3.

>  <SMILES>  (70) 
O=C(*)[C@H](CCCC[NH2+]C[C@@H](CC[NH3+])O)N*

>  <Formulae>  (70) 
C10H23N3O2

>  <Charge>  (70) 
+2

>  <Mass>  (70) 
217.309

>  <Monoisotopic Mass>  (70) 
217.17903

>  <Synonyms>  (70) 
hypusine residue
hypusinium residue

>  <PubChem Database Links>  (70) 
SID: 312531123

>  <Rhea Database Links>  (70) 
RHEA:14101

>  <Last Modified>  (70) 
16 Jun 2016

$$$$

     RDKit          2D

 10  9  0  0  0  0  0  0  0  0999 V2000
   -4.1966    1.8214    0.0000 C   0  0  0  0  0  0  0  0  0  0  0  0
   -3.3306    2.3215    0.0000 C   0  0  0  0  0  0  0  0  0  0  0  0
   -2.4646    1.8214    0.0000 C   0  0  0  0  0  0  0  0  0  0  0  0
   -1.5984    2.3215    0.0000 C   0  0  0  0  0  0  0  0  0  0  0  0
   -0.7324    1.8214    0.0000 C   0  0  0  0  0  0  0  0  0  0  0  0
    0.1336    2.3215    0.0000 C   0  0  0  0  0  0  0  0  0  0  0  0
    0.9996    1.8214    0.0000 O   0  0  0  0  0  0  0  0  0  0  0  0
   -4.1966    0.8215    0.0000 O   0  0  0  0  0  0  0  0  0  0  0  0
   -0.7324    0.8215    0.0000 N   0  0  0  0  0  0  0  0  0  0  0  0
    0.1336    3.3215    0.0000 O   0  0  0  0  0  0  0  0  0  0  0  0
  1  2  1  0
  2  3  1  0
  3  4  1  0
  5  4  1  0
  5  6  1  0
  6  7  1  0
  1  8  2  0
  5  9  1  1
  6 10  2  0
V    7 *
M  END
>  <ChEBI ID>  (71) 
CHEBI:131803

>  <ChEBI Name>  (71) 
L-allysine residue

>  <Star>  (71) 
3

>  <Definition>  (71) 
An L-alpha-amino acid residue derived from L-allysine.

>  <SMILES>  (71) 
[H]C(CCC[C@@H](C(*)=O)N*)=O

>  <Formulae>  (71) 
C6H9NO2

>  <Charge>  (71) 
0

>  <Mass>  (71) 
127.141

>  <Monoisotopic Mass>  (71) 
127.06333

>  <Synonyms>  (71) 
(S)-2-amino-6-oxohexanoate residue
(S)-2-amino-6-oxohexanoyl residue

>  <MetaCyc Database Links>  (71) 
CPD-8649

>  <PubChem Database Links>  (71) 
SID: 85735552

>  <Rhea Database Links>  (71) 
RHEA:63676
RHEA:63668
RHEA:51648
RHEA:63660
RHEA:24544

>  <Last Modified>  (71) 
02 Jun 2016

$$$$

     RDKit          2D

  8  7  0  0  0  0  0  0  0  0999 V2000
    8.7700   -5.1550    0.0000 N   0  0  0  0  0  0  0  0  0  0  0  0
   10.5021   -5.1550    0.0000 C   0  0  0  0  0  0  0  0  0  0  0  0
   10.5021   -4.1550    0.0000 O   0  0  0  0  0  0  0  0  0  0  0  0
    9.6361   -5.6550    0.0000 C   0  0  0  0  0  0  0  0  0  0  0  0
   11.3681   -5.6550    0.0000 O   0  0  0  0  0  0  0  0  0  0  0  0
    7.9039   -5.6550    0.0000 C   0  0  0  0  0  0  0  0  0  0  0  0
    7.0380   -5.1550    0.0000 C   0  0  0  0  0  0  0  0  0  0  0  0
    7.9039   -6.6550    0.0000 O   0  0  0  0  0  0  0  0  0  0  0  0
  3  2  2  0
  4  2  1  0
  5  2  1  0
  4  1  1  0
  6  7  1  0
  1  6  1  0
  6  8  2  0
V    5 *
M  END
>  <ChEBI ID>  (72) 
CHEBI:133369

>  <ChEBI Name>  (72) 
N-acetylglycyl residue

>  <Star>  (72) 
3

>  <Definition>  (72) 
An N-acyl-alpha-aminoacyl group derived from N-acetylglycine

>  <SMILES>  (72) 
N(CC(=O)*)C(C)=O

>  <Formulae>  (72) 
C4H6NO2

>  <Charge>  (72) 
0

>  <Mass>  (72) 
100.096

>  <Monoisotopic Mass>  (72) 
100.03985

>  <Synonyms>  (72) 
N-terminal N(alpha)-acetylglycine residue

>  <MetaCyc Database Links>  (72) 
N-terminal-N-Ac-glycine

>  <PubChem Database Links>  (72) 
SID: 85333167

>  <Rhea Database Links>  (72) 
RHEA:50496

>  <Last Modified>  (72) 
18 Oct 2017

$$$$

     RDKit          2D

 11 10  0  0  0  0  0  0  0  0999 V2000
   20.6208   -8.3257    0.0000 C   0  0  0  0  0  0  0  0  0  0  0  0
   20.6208   -7.3257    0.0000 O   0  0  0  0  0  0  0  0  0  0  0  0
   19.7547   -8.8257    0.0000 C   0  0  0  0  0  0  0  0  0  0  0  0
   19.7547   -9.8257    0.0000 N   0  0  0  0  0  0  0  0  0  0  0  0
   18.8886   -8.3257    0.0000 C   0  0  0  0  0  0  0  0  0  0  0  0
   21.4867   -8.8257    0.0000 O   0  0  0  0  0  0  0  0  0  0  0  0
   18.8886  -10.3257    0.0000 C   0  0  0  0  0  0  0  0  0  0  0  0
   18.0227   -9.8257    0.0000 C   0  0  0  0  0  0  0  0  0  0  0  0
   18.8886  -11.3258    0.0000 O   0  0  0  0  0  0  0  0  0  0  0  0
   18.0226   -8.8257    0.0000 C   0  0  0  0  0  0  0  0  0  0  0  0
   18.8886   -7.3257    0.0000 C   0  0  0  0  0  0  0  0  0  0  0  0
  1  6  1  0
  2  1  2  0
  3  1  1  0
  3  4  1  1
  5  3  1  0
  7  8  1  0
  4  7  1  0
  7  9  2  0
  5 10  1  0
  5 11  1  0
V    6 *
M  END
>  <ChEBI ID>  (73) 
CHEBI:133371

>  <ChEBI Name>  (73) 
N-acetyl-L-valyl residue

>  <Star>  (73) 
3

>  <Definition>  (73) 
An N-acyl-alpha-aminoacyl group derived from N-acetyl-L-valine.

>  <SMILES>  (73) 
C(*)(=O)[C@@H](NC(C)=O)C(C)C

>  <Formulae>  (73) 
C7H12NO2

>  <Charge>  (73) 
0

>  <Mass>  (73) 
142.176

>  <Monoisotopic Mass>  (73) 
142.08680

>  <Synonyms>  (73) 
N-terminal N(alpha)-acetyl-L-valine residue

>  <MetaCyc Database Links>  (73) 
N-Ac-N-terminal-L-valine

>  <PubChem Database Links>  (73) 
SID: 85333169

>  <Rhea Database Links>  (73) 
RHEA:50508

>  <Last Modified>  (73) 
18 Oct 2017

$$$$

     RDKit          2D

 10  9  0  0  0  0  0  0  0  0999 V2000
   20.6208   -8.3257    0.0000 C   0  0  0  0  0  0  0  0  0  0  0  0
   20.6208   -7.3257    0.0000 O   0  0  0  0  0  0  0  0  0  0  0  0
   19.7547   -8.8257    0.0000 C   0  0  0  0  0  0  0  0  0  0  0  0
   19.7547   -9.8257    0.0000 N   0  0  0  0  0  0  0  0  0  0  0  0
   18.8886   -8.3257    0.0000 C   0  0  0  0  0  0  0  0  0  0  0  0
   21.4867   -8.8257    0.0000 O   0  0  0  0  0  0  0  0  0  0  0  0
   18.8886  -10.3258    0.0000 C   0  0  0  0  0  0  0  0  0  0  0  0
   18.0227   -9.8257    0.0000 C   0  0  0  0  0  0  0  0  0  0  0  0
   18.8886  -11.3258    0.0000 O   0  0  0  0  0  0  0  0  0  0  0  0
   18.0226   -8.8257    0.0000 S   0  0  0  0  0  0  0  0  0  0  0  0
  1  6  1  0
  2  1  2  0
  3  1  1  0
  3  4  1  0
  3  5  1  1
  7  8  1  0
  4  7  1  0
  7  9  2  0
  5 10  1  0
V    6 *
M  END
>  <ChEBI ID>  (74) 
CHEBI:133372

>  <ChEBI Name>  (74) 
N-acetyl-L-cysteinyl residue

>  <Star>  (74) 
3

>  <Definition>  (74) 
An N-acyl-alpha-aminoacyl group derived from N-acetyl-L-cysteine.

>  <SMILES>  (74) 
C(*)(=O)[C@@H](NC(C)=O)CS

>  <Formulae>  (74) 
C5H8NO2S

>  <Charge>  (74) 
0

>  <Mass>  (74) 
146.189

>  <Monoisotopic Mass>  (74) 
146.02757

>  <Synonyms>  (74) 
N-terminal N(alpha)-acetyl-L-cysteine residue

>  <MetaCyc Database Links>  (74) 
N-terminal-N-Ac-L-cysteine

>  <PubChem Database Links>  (74) 
SID: 85333170

>  <Rhea Database Links>  (74) 
RHEA:50512

>  <Last Modified>  (74) 
18 Oct 2017

$$$$

     RDKit          2D

 11 10  0  0  0  0  0  0  0  0999 V2000
   20.6208   -8.3257    0.0000 C   0  0  0  0  0  0  0  0  0  0  0  0
   20.6208   -7.3257    0.0000 O   0  0  0  0  0  0  0  0  0  0  0  0
   19.7547   -8.8257    0.0000 C   0  0  0  0  0  0  0  0  0  0  0  0
   19.7547   -9.8257    0.0000 N   0  0  0  0  0  0  0  0  0  0  0  0
   18.8886   -8.3257    0.0000 C   0  0  0  0  0  0  0  0  0  0  0  0
   21.4867   -8.8257    0.0000 O   0  0  0  0  0  0  0  0  0  0  0  0
   18.8886  -10.3257    0.0000 C   0  0  0  0  0  0  0  0  0  0  0  0
   18.0227   -9.8257    0.0000 C   0  0  0  0  0  0  0  0  0  0  0  0
   18.8886  -11.3258    0.0000 O   0  0  0  0  0  0  0  0  0  0  0  0
   18.0226   -8.8257    0.0000 C   0  0  0  0  0  0  0  0  0  0  0  0
   18.8886   -7.3257    0.0000 O   0  0  0  0  0  0  0  0  0  0  0  0
  1  6  1  0
  2  1  2  0
  3  1  1  0
  3  4  1  1
  5  3  1  0
  7  8  1  0
  4  7  1  0
  7  9  2  0
  5 10  1  1
  5 11  1  0
V    6 *
M  END
>  <ChEBI ID>  (75) 
CHEBI:133375

>  <ChEBI Name>  (75) 
N-acetyl-L-threonyl residue

>  <Star>  (75) 
3

>  <Definition>  (75) 
An N-acyl-alpha-aminoacyl group derived from N-acetyl-L-threonine.

>  <SMILES>  (75) 
C(*)(=O)[C@@H](NC(C)=O)[C@@H](C)O

>  <Formulae>  (75) 
C6H10NO3

>  <Charge>  (75) 
0

>  <Mass>  (75) 
144.149

>  <Monoisotopic Mass>  (75) 
144.06607

>  <Synonyms>  (75) 
N-terminal N(alpha)-acetyl-L-threonine residue

>  <MetaCyc Database Links>  (75) 
Protein-N-terminal-N-Ac-L-threonine

>  <PubChem Database Links>  (75) 
SID: 85333172

>  <Rhea Database Links>  (75) 
RHEA:50516

>  <Last Modified>  (75) 
18 Oct 2017

$$$$

     RDKit          2D

 12 11  0  0  0  0  0  0  0  0999 V2000
    7.9116   -5.6605    0.0000 C   0  0  0  0  0  0  0  0  0  0  0  0
    7.9116   -6.6614    0.0000 O   0  0  0  0  0  0  0  0  0  0  0  0
    7.0448   -5.1600    0.0000 C   0  0  0  0  0  0  0  0  0  0  0  0
    8.7786   -5.1600    0.0000 O   0  0  0  0  0  0  0  0  0  0  0  0
    6.1779   -5.6605    0.0000 N   0  0  0  0  0  0  0  0  0  0  0  0
    7.0448   -4.1590    0.0000 C   0  0  0  0  0  0  0  0  0  0  0  0
    6.1758   -2.6736    0.0000 S   0  0  0  0  0  0  0  0  0  0  0  0
    6.1771   -3.6671    0.0000 C   0  0  0  0  0  0  0  0  0  0  0  0
    5.3061   -2.1778    0.0000 C   0  0  0  0  0  0  0  0  0  0  0  0
    6.1779   -6.6615    0.0000 C   0  0  0  0  0  0  0  0  0  0  0  0
    5.3109   -7.1620    0.0000 O   0  0  0  0  0  0  0  0  0  0  0  0
    7.0448   -7.1620    0.0000 C   0  0  0  0  0  0  0  0  0  0  0  0
  2  1  2  0
  3  1  1  0
  4  1  1  0
  3  5  1  0
  3  6  1  1
  8  7  1  0
  9  7  1  0
  8  6  1  0
  5 10  1  0
 10 11  2  0
 10 12  1  0
V    4 *
M  END
>  <ChEBI ID>  (76) 
CHEBI:133414

>  <ChEBI Name>  (76) 
N-acetyl-L-methionyl residue

>  <Star>  (76) 
3

>  <Definition>  (76) 
An N-acetylamino-acid residue derived from N-acetyl-L-methionine.

>  <SMILES>  (76) 
C(=O)([C@@H](NC(=O)C)CCSC)*

>  <Formulae>  (76) 
C7H12NO2S

>  <Charge>  (76) 
0

>  <Mass>  (76) 
174.242

>  <Monoisotopic Mass>  (76) 
174.05887

>  <Synonyms>  (76) 
Ac-Met residue
N-acetylmethionyl residue
N-terminal N(alpha)-acetyl-L-methionine residue

>  <PubChem Database Links>  (76) 
SID: 85333211

>  <Rhea Database Links>  (76) 
RHEA:50604

>  <Last Modified>  (76) 
18 Oct 2017

$$$$

     RDKit          2D

 11 10  0  0  1  0  0  0  0  0999 V2000
   12.3850  -24.1336    0.0000 C   0  0  0  0  0  0  0  0  0  0  0  0
   13.2498  -23.6322    0.0000 C   0  0  0  0  0  0  0  0  0  0  0  0
   11.5203  -23.6322    0.0000 C   0  0  0  0  0  0  0  0  0  0  0  0
   12.3850  -25.1321    0.0000 N   0  0  0  0  0  0  0  0  0  0  0  0
   14.1189  -24.1336    0.0000 O   0  0  0  0  0  0  0  0  0  0  0  0
   13.2498  -22.6337    0.0000 O   0  0  0  0  0  0  0  0  0  0  0  0
   10.6553  -24.1336    0.0000 C   0  0  0  0  0  0  0  0  0  0  0  0
    9.7906  -23.6322    0.0000 C   0  0  0  0  0  0  0  0  0  0  0  0
    8.9215  -24.1336    0.0000 C   0  0  0  0  0  0  0  0  0  0  0  0
    9.7906  -22.6337    0.0000 O   0  0  0  0  0  0  0  0  0  0  0  0
    8.0566  -23.6322    0.0000 N   0  0  0  0  0  0  0  0  0  0  0  0
  1  2  1  0
  1  3  1  0
  1  4  1  1
  2  5  1  0
  2  6  2  0
  3  7  1  0
  7  8  1  0
  8  9  1  0
  8 10  1  6
  9 11  1  0
V    5 *
M  END
>  <ChEBI ID>  (77) 
CHEBI:133442

>  <ChEBI Name>  (77) 
(5R)-5-hydroxy-L-lysine(1+) residue

>  <Star>  (77) 
3

>  <Definition>  (77) 
An amino-acid cation residue obtained by protonation of the side-chain amino group of (5R)-5-hydroxy-L-lysine residue residue; major species at pH 7.3.

>  <SMILES>  (77) 
[C@@H](C(*)=O)(CC[C@H](C[NH3+])O)N*

>  <Formulae>  (77) 
C6H13N2O2

>  <Charge>  (77) 
+1

>  <Mass>  (77) 
145.180

>  <Monoisotopic Mass>  (77) 
145.09770

>  <Synonyms>  (77) 
(5R)-5-hydroxy-L-lysine residue
L-erythro-5-hydroxy-L-lysine residue

>  <MetaCyc Database Links>  (77) 
PROCOLLAGEN-5-HYDROXY-L-LYSINE

>  <PubChem Database Links>  (77) 
SID: 85333239

>  <Rhea Database Links>  (77) 
RHEA:16569
RHEA:66008
RHEA:12637
RHEA:66012

>  <Last Modified>  (77) 
20 Apr 2017

$$$$

     RDKit          2D

 18 17  0  0  0  0  0  0  0  0999 V2000
   -4.1072    3.2501    0.0000 N   0  0  0  0  0  0  0  0  0  0  0  0
   -3.2411    3.7501    0.0000 C   0  0  0  0  0  0  0  0  0  0  0  0
   -2.3752    3.2501    0.0000 C   0  0  0  0  0  0  0  0  0  0  0  0
   -1.5091    3.7501    0.0000 O   0  0  0  0  0  0  0  0  0  0  0  0
   -2.3752    2.2501    0.0000 O   0  0  0  0  0  0  0  0  0  0  0  0
   -3.2411    4.7501    0.0000 C   0  0  0  0  0  0  0  0  0  0  0  0
   -2.3752    5.2502    0.0000 C   0  0  0  0  0  0  0  0  0  0  0  0
   -2.3752    6.2502    0.0000 C   0  0  0  0  0  0  0  0  0  0  0  0
   -1.5091    6.7502    0.0000 N   0  0  0  0  0  0  0  0  0  0  0  0
   -3.2411    6.7502    0.0000 O   0  0  0  0  0  0  0  0  0  0  0  0
   -1.5091    7.7502    0.0000 C   0  0  0  0  0  0  0  0  0  0  0  0
   -0.6430    8.2502    0.0000 C   0  0  0  0  0  0  0  0  0  0  0  0
   -2.3752    8.2502    0.0000 C   0  0  0  0  0  0  0  0  0  0  0  0
   -2.3752    9.2502    0.0000 O   0  0  0  0  0  0  0  0  0  0  0  0
   -3.2411    7.7502    0.0000 O   0  0  0  0  0  0  0  0  0  0  0  0
    0.2230    7.7502    0.0000 C   0  0  0  0  0  0  0  0  0  0  0  0
    1.0890    8.2502    0.0000 C   0  0  0  0  0  0  0  0  0  0  0  0
    1.9550    7.7502    0.0000 N   0  0  0  0  0  0  0  0  0  0  0  0
  2  1  1  1
  2  3  1  0
  3  4  1  0
  3  5  2  0
  2  6  1  0
  6  7  1  0
  7  8  1  0
  8  9  1  0
  8 10  2  0
 11  9  1  0
 11 12  1  6
 11 13  1  0
 13 14  2  0
 13 15  1  0
 12 16  1  0
 16 17  1  0
 17 18  1  0
M  END
>  <ChEBI ID>  (78) 
CHEBI:136763

>  <ChEBI Name>  (78) 
C-terminal-gamma-(L-ornithyl)-L-glutamyl(1-) group

>  <Star>  (78) 
3

>  <Definition>  (78) 
An alpha-amino-acid residue anion obtained by deprotonation of the carboxy groups as well as protonatoin of the amino group of C-terminal-gamma-(L-ornithyl)-L-2-glutamic acid group. Major structure at pH 7.3.

>  <SMILES>  (78) 
N([C@H](C([O-])=O)CCC(N[C@@H](CCC[NH3+])C(=O)[O-])=O)*

>  <Formulae>  (78) 
C10H17N3O5

>  <Charge>  (78) 
-1

>  <Mass>  (78) 
259.259

>  <Monoisotopic Mass>  (78) 
259.11682

>  <Synonyms>  (78) 
C-terminal-gamma-(L-ornithyl)-L-glutamyl residue

>  <PubChem Database Links>  (78) 
SID: 85336493

>  <Rhea Database Links>  (78) 
RHEA:52672
RHEA:52676

>  <Last Modified>  (78) 
26 Nov 2019

$$$$

     RDKit          2D

 15 14  0  0  0  0  0  0  0  0999 V2000
   11.1286   -6.2646    0.0000 C   0  0  0  0  0  0  0  0  0  0  0  0
   11.9970   -6.7695    0.0000 O   0  0  0  0  0  0  0  0  0  0  0  0
   10.2601   -6.7695    0.0000 C   0  0  0  0  0  0  0  0  0  0  0  0
   11.1286   -5.2750    0.0000 O   0  0  0  0  0  0  0  0  0  0  0  0
   10.2805   -7.7589    0.0000 N   0  0  0  0  0  0  0  0  0  0  0  0
    5.9384   -6.2646    0.0000 N   0  0  0  0  0  0  0  0  0  0  0  0
    6.8069   -6.7493    0.0000 C   0  0  0  0  0  0  0  0  0  0  0  0
    9.4120   -6.2646    0.0000 C   0  0  0  0  0  0  0  0  0  0  0  0
    7.6751   -6.2646    0.0000 C   0  0  0  0  0  0  0  0  0  0  0  0
    8.5435   -6.7695    0.0000 C   0  0  0  0  0  0  0  0  0  0  0  0
    5.0759   -6.7795    0.0000 C   0  0  0  0  0  0  0  0  0  0  0  0
    4.1988   -6.2899    0.0000 C   0  0  0  0  0  0  0  0  0  0  0  0
    5.0906   -7.7837    0.0000 O   0  0  0  0  0  0  0  0  0  0  0  0
    3.3364   -6.8047    0.0000 C   0  0  0  0  0  0  0  0  0  0  0  0
    2.4593   -6.3151    0.0000 C   0  0  0  0  0  0  0  0  0  0  0  0
  2  1  1  0
  3  1  1  0
  4  1  2  0
  3  5  1  1
  3  8  1  0
  7  6  1  0
  9  7  1  0
 10  8  1  0
 10  9  1  0
  6 11  1  0
 11 12  1  0
 11 13  2  0
 12 14  2  0
 14 15  1  0
V    2 *
M  END
>  <ChEBI ID>  (79) 
CHEBI:137954

>  <ChEBI Name>  (79) 
N(6)-[(E)-but-2-enoyl]-L-lysine residue

>  <Star>  (79) 
3

>  <Definition>  (79) 
An N(6)-acyl-L-lysine residue derived from N(6)-[(E)-but-2-enoyl]-L-lysine.

>  <SMILES>  (79) 
C(*)([C@@H](N*)CCCCNC(/C=C/C)=O)=O

>  <Formulae>  (79) 
C10H16N2O2

>  <Charge>  (79) 
0

>  <Mass>  (79) 
196.247

>  <Monoisotopic Mass>  (79) 
196.12118

>  <Synonyms>  (79) 
N(6)-(E)-but-2-enoyl-L-lysine residue
N(6)-crotonyl-L-lysine residue

>  <PubMed citation Links>  (79) 
25818647

>  <PubChem Database Links>  (79) 
SID: 85337665

>  <Rhea Database Links>  (79) 
RHEA:53908
RHEA:69172
RHEA:69332

>  <Last Modified>  (79) 
28 Sep 2017

$$$$

     RDKit          2D

 15 14  0  0  0  0  0  0  0  0999 V2000
   11.1286   -6.2646    0.0000 C   0  0  0  0  0  0  0  0  0  0  0  0
   11.9970   -6.7695    0.0000 O   0  0  0  0  0  0  0  0  0  0  0  0
   10.2601   -6.7695    0.0000 C   0  0  0  0  0  0  0  0  0  0  0  0
   11.1286   -5.2750    0.0000 O   0  0  0  0  0  0  0  0  0  0  0  0
   10.2805   -7.7589    0.0000 N   0  0  0  0  0  0  0  0  0  0  0  0
    5.9384   -6.2646    0.0000 N   0  0  0  0  0  0  0  0  0  0  0  0
    6.8069   -6.7493    0.0000 C   0  0  0  0  0  0  0  0  0  0  0  0
    9.4120   -6.2646    0.0000 C   0  0  0  0  0  0  0  0  0  0  0  0
    7.6751   -6.2646    0.0000 C   0  0  0  0  0  0  0  0  0  0  0  0
    8.5435   -6.7695    0.0000 C   0  0  0  0  0  0  0  0  0  0  0  0
    5.0759   -6.7795    0.0000 C   0  0  0  0  0  0  0  0  0  0  0  0
    4.1988   -6.2899    0.0000 C   0  0  0  0  0  0  0  0  0  0  0  0
    5.0906   -7.7837    0.0000 O   0  0  0  0  0  0  0  0  0  0  0  0
    3.3364   -6.8047    0.0000 C   0  0  0  0  0  0  0  0  0  0  0  0
    2.4593   -6.3151    0.0000 C   0  0  0  0  0  0  0  0  0  0  0  0
  2  1  1  0
  3  1  1  0
  4  1  2  0
  3  5  1  1
  3  8  1  0
  7  6  1  0
  9  7  1  0
 10  8  1  0
 10  9  1  0
  6 11  1  0
 11 12  1  0
 11 13  2  0
 12 14  1  0
 14 15  1  0
V    2 *
M  END
>  <ChEBI ID>  (80) 
CHEBI:137955

>  <ChEBI Name>  (80) 
N(6)-butyryl-L-lysine residue

>  <Star>  (80) 
3

>  <Definition>  (80) 
An N(6)-acyl-L-lysine residue derived from N(6)-butyryl-L-lysine.

>  <SMILES>  (80) 
C(*)([C@@H](N*)CCCCNC(CCC)=O)=O

>  <Formulae>  (80) 
C10H18N2O2

>  <Charge>  (80) 
0

>  <Mass>  (80) 
198.263

>  <Monoisotopic Mass>  (80) 
198.13683

>  <Synonyms>  (80) 
N(6)-butanoyl-L-lysine residue

>  <PubMed citation Links>  (80) 
27105113

>  <PubChem Database Links>  (80) 
SID: 85337666

>  <Rhea Database Links>  (80) 
RHEA:53912

>  <Last Modified>  (80) 
28 Sep 2017

$$$$

     RDKit          2D

 14 13  0  0  0  0  0  0  0  0999 V2000
   11.1322   -6.2666    0.0000 C   0  0  0  0  0  0  0  0  0  0  0  0
   12.0008   -6.7717    0.0000 O   0  0  0  0  0  0  0  0  0  0  0  0
   10.2634   -6.7717    0.0000 C   0  0  0  0  0  0  0  0  0  0  0  0
   11.1322   -5.2767    0.0000 O   0  0  0  0  0  0  0  0  0  0  0  0
   10.2838   -7.7614    0.0000 N   0  0  0  0  0  0  0  0  0  0  0  0
    5.9403   -6.2666    0.0000 N   0  0  0  0  0  0  0  0  0  0  0  0
    6.8091   -6.7515    0.0000 C   0  0  0  0  0  0  0  0  0  0  0  0
    9.4150   -6.2666    0.0000 C   0  0  0  0  0  0  0  0  0  0  0  0
    7.6776   -6.2666    0.0000 C   0  0  0  0  0  0  0  0  0  0  0  0
    8.5462   -6.7717    0.0000 C   0  0  0  0  0  0  0  0  0  0  0  0
    5.0775   -6.7817    0.0000 C   0  0  0  0  0  0  0  0  0  0  0  0
    4.2001   -6.2919    0.0000 C   0  0  0  0  0  0  0  0  0  0  0  0
    5.0922   -7.7862    0.0000 O   0  0  0  0  0  0  0  0  0  0  0  0
    3.3375   -6.8069    0.0000 C   0  0  0  0  0  0  0  0  0  0  0  0
  2  1  1  0
  3  1  1  0
  4  1  2  0
  3  5  1  1
  3  8  1  0
  7  6  1  0
  9  7  1  0
 10  8  1  0
 10  9  1  0
  6 11  1  0
 11 12  1  0
 11 13  2  0
 12 14  1  0
V    2 *
M  END
>  <ChEBI ID>  (81) 
CHEBI:138019

>  <ChEBI Name>  (81) 
N(6)-propanoyl-L-lysine residue

>  <Star>  (81) 
3

>  <Definition>  (81) 
An N(6)-acyl-L-lysine residue derived from N(6)-propanoyl-L-lysine.

>  <SMILES>  (81) 
C(*)([C@@H](N*)CCCCNC(CC)=O)=O

>  <Formulae>  (81) 
C9H16N2O2

>  <Charge>  (81) 
0

>  <Mass>  (81) 
184.236

>  <Monoisotopic Mass>  (81) 
184.12118

>  <Synonyms>  (81) 
N(6)-propanoyl-L-lysine residue
N(6)-propanoyllysine residue
N(6)-propionyl-L-lysine residue
N(6)-propionyllysine residue

>  <PubMed citation Links>  (81) 
17267393

>  <PubChem Database Links>  (81) 
SID: 85337728

>  <Rhea Database Links>  (81) 
RHEA:23500
RHEA:54020

>  <Last Modified>  (81) 
10 Oct 2017

$$$$

     RDKit          2D

 12 12  0  0  0  0  0  0  0  0999 V2000
   25.1392  -10.9885    0.0000 C   0  0  0  0  0  0  0  0  0  0  0  0
   25.1392   -9.9885    0.0000 O   0  0  0  0  0  0  0  0  0  0  0  0
   24.2733  -11.4885    0.0000 C   0  0  0  0  0  0  0  0  0  0  0  0
   24.2733  -12.4885    0.0000 N   0  0  0  0  0  0  0  0  0  0  0  0
   23.4072  -10.9885    0.0000 C   0  0  0  0  0  0  0  0  0  0  0  0
   22.5411  -11.4885    0.0000 C   0  0  0  0  0  0  0  0  0  0  0  0
   21.6277  -11.0817    0.0000 N   0  0  0  0  0  0  0  0  0  0  0  0
   22.4367  -12.4830    0.0000 C   0  0  0  0  0  0  0  0  0  0  0  0
   20.9585  -11.8249    0.0000 C   0  0  0  0  0  0  0  0  0  0  0  0
   21.4585  -12.6909    0.0000 N   0  0  0  0  0  0  0  0  0  0  0  0
   26.0052  -11.4885    0.0000 O   0  0  0  0  0  0  0  0  0  0  0  0
   23.4072   -9.9885    0.0000 O   0  0  0  0  0  0  0  0  0  0  0  0
  1 11  1  0
  2  1  2  0
  3  1  1  0
  3  4  1  1
  5  3  1  0
  7  6  1  0
  8  6  2  0
  9  7  2  0
 10  8  1  0
  9 10  1  0
  6  5  1  0
  5 12  1  1
V   11 *
M  END
>  <ChEBI ID>  (82) 
CHEBI:138021

>  <ChEBI Name>  (82) 
(3S)-3-hydroxy-L-histidine residue

>  <Star>  (82) 
3

>  <Definition>  (82) 
An L-alpha-amino acid residue derived from (3S)-3-hydroxy-L-histidine.

>  <SMILES>  (82) 
C(*)(=O)[C@@H](N*)[C@@H](C=1N=CNC1)O

>  <Formulae>  (82) 
C6H7N3O2

>  <Charge>  (82) 
0

>  <Mass>  (82) 
153.139

>  <Monoisotopic Mass>  (82) 
153.05383

>  <Synonyms>  (82) 
(3S)-3-hydroxy-L-histidine residue

>  <PubMed citation Links>  (82) 
23103944

>  <PubChem Database Links>  (82) 
SID: 85337730

>  <Rhea Database Links>  (82) 
RHEA:54256
RHEA:54024
RHEA:54264

>  <Last Modified>  (82) 
10 Oct 2017

$$$$

     RDKit          2D

 44 47  0  0  1  0  0  0  0  0999 V2000
    6.9897   -4.7080    0.0000 O   0  0  0  0  0  0  0  0  0  0  0  0
    6.1277   -5.2058    0.0000 C   0  0  0  0  0  0  0  0  0  0  0  0
    5.2654   -4.7081    0.0000 O   0  0  0  0  0  0  0  0  0  0  0  0
    6.1277   -6.2012    0.0000 C   0  0  0  0  0  0  0  0  0  0  0  0
    5.2656   -6.6991    0.0000 C   0  0  0  0  0  0  0  0  0  0  0  0
    5.2657   -7.6946    0.0000 C   0  0  0  0  0  0  0  0  0  0  0  0
    4.4035   -6.2014    0.0000 N   0  0  0  0  0  0  0  0  0  0  0  0
    4.4035   -8.1923    0.0000 O   0  0  0  0  0  0  0  0  0  0  0  0
    6.1278   -8.1923    0.0000 O   0  0  0  0  0  0  0  0  0  0  0  0
    7.8519   -5.2058    0.0000 C   0  0  0  0  0  0  0  0  0  0  0  0
   11.1868   -5.2070    0.0000 O   0  0  0  0  0  0  0  0  0  0  0  0
   17.2968   -5.0798    0.0000 O   0  0  0  0  0  0  0  0  0  0  0  0
   16.3500   -5.3874    0.0000 C   0  0  0  0  0  0  0  0  0  0  0  0
   17.8817   -5.8850    0.0000 C   0  0  0  0  0  0  0  0  0  0  0  0
   16.3500   -6.3829    0.0000 C   0  0  0  0  0  0  0  0  0  0  0  0
   17.2968   -6.6906    0.0000 C   0  0  0  0  0  0  0  0  0  0  0  0
   15.5446   -6.9680    0.0000 O   0  0  0  0  0  0  0  0  0  0  0  0
   17.6044   -7.6373    0.0000 O   0  0  0  0  0  0  0  0  0  0  0  0
   15.5446   -4.8023    0.0000 C   0  0  0  0  0  0  0  0  0  0  0  0
   22.0958   -6.7414    0.0000 N   0  0  0  0  0  0  0  0  0  0  0  0
   20.4093   -5.3874    0.0000 N   0  0  0  0  0  0  0  0  0  0  0  0
   18.8772   -5.8850    0.0000 N   0  0  0  0  0  0  0  0  0  0  0  0
   19.4625   -5.0798    0.0000 C   0  0  0  0  0  0  0  0  0  0  0  0
   20.4093   -6.3829    0.0000 C   0  0  0  0  0  0  0  0  0  0  0  0
   19.4625   -6.6906    0.0000 C   0  0  0  0  0  0  0  0  0  0  0  0
   19.2555   -7.6642    0.0000 N   0  0  0  0  0  0  0  0  0  0  0  0
   21.1489   -7.0489    0.0000 C   0  0  0  0  0  0  0  0  0  0  0  0
   20.9420   -8.0227    0.0000 N   0  0  0  0  0  0  0  0  0  0  0  0
   19.9953   -8.3303    0.0000 C   0  0  0  0  0  0  0  0  0  0  0  0
   13.7730   -3.7139    0.0000 O   0  0  0  0  0  0  0  0  0  0  0  0
   12.9111   -5.2070    0.0000 O   0  0  0  0  0  0  0  0  0  0  0  0
   14.6353   -5.2070    0.0000 O   0  0  0  0  0  0  0  0  0  0  0  0
   12.0489   -3.7139    0.0000 O   0  0  0  0  0  0  0  0  0  0  0  0
   12.0489   -4.7094    0.0000 P   0  0  0  0  0  0  0  0  0  0  0  0
   12.0489   -5.7049    0.0000 O   0  0  0  0  0  0  0  0  0  0  0  0
   13.7730   -4.7094    0.0000 P   0  0  0  0  0  0  0  0  0  0  0  0
   13.7730   -5.7049    0.0000 O   0  0  0  0  0  0  0  0  0  0  0  0
   10.3247   -4.7094    0.0000 C   0  0  0  0  0  0  0  0  0  0  0  0
    9.4627   -5.2072    0.0000 C   0  0  0  0  0  0  0  0  0  0  0  0
    8.6578   -4.6214    0.0000 O   0  0  0  0  0  0  0  0  0  0  0  0
    8.1587   -6.1528    0.0000 C   0  0  0  0  0  0  0  0  0  0  0  0
    9.1543   -6.1537    0.0000 C   0  0  0  0  0  0  0  0  0  0  0  0
    9.6189   -7.1875    0.0000 O   0  0  0  0  0  0  0  0  0  0  0  0
    7.7288   -7.1375    0.0000 O   0  0  0  0  0  0  0  0  0  0  0  0
  1  2  1  0
  2  3  2  0
  2  4  1  0
  5  4  1  0
  5  6  1  0
  5  7  1  1
  6  8  1  0
  6  9  2  0
  1 10  1  0
 11 34  1  0
 13 12  1  0
 14 12  1  0
 15 13  1  0
 13 19  1  1
 16 14  1  0
 14 22  1  1
 15 16  1  0
 15 17  1  6
 16 18  1  6
 32 19  1  0
 20 27  1  0
 21 23  2  0
 24 21  1  0
 23 22  1  0
 25 22  1  0
 24 25  2  0
 27 24  1  0
 25 26  1  0
 29 26  2  0
 27 28  2  0
 28 29  1  0
 36 30  2  0
 31 36  1  0
 31 34  1  0
 32 36  1  0
 33 34  2  0
 34 35  1  0
 36 37  1  0
 11 38  1  0
 39 38  1  6
 40 10  1  0
 41 10  1  0
 39 40  1  0
 42 41  1  0
 42 39  1  0
 42 43  1  1
 41 44  1  1
V    8 *
M  END
>  <ChEBI ID>  (83) 
CHEBI:138102

>  <ChEBI Name>  (83) 
4-(ADP-D-ribosyl)-L-aspartyl(2-) residue

>  <Star>  (83) 
3

>  <Definition>  (83) 
An organic anionic group obtained by deprotonation of the diphosphate OH groups of 4-(ADP-D-ribosyl)-L-aspartyl residue. Major microspecies at pH 7.3

>  <SMILES>  (83) 
O(C(=O)C[C@@H](C(*)=O)N*)C1O[C@H](COP(OP(=O)(OC[C@H]2O[C@H]([C@@H]([C@@H]2O)O)N3C=NC4=C3N=CN=C4N)[O-])(=O)[O-])[C@H]([C@H]1O)O

>  <Formulae>  (83) 
C19H24N6O16P2

>  <Charge>  (83) 
-2

>  <Mass>  (83) 
654.373

>  <Monoisotopic Mass>  (83) 
654.07240

>  <Synonyms>  (83) 
4-O-(ADP-D-ribosyl)-L-aspartyl residue

>  <PubChem Database Links>  (83) 
SID: 85337810

>  <Rhea Database Links>  (83) 
RHEA:54424
RHEA:54428

>  <Last Modified>  (83) 
12 Nov 2018

$$$$

     RDKit          2D

 10  9  0  0  0  0  0  0  0  0999 V2000
   -0.4330    0.2501    0.0000 C   0  0  0  0  0  0  0  0  0  0  0  0
   -2.1651    0.2501    0.0000 N   0  0  0  0  0  0  0  0  0  0  0  0
   -1.2990   -0.2499    0.0000 C   0  0  0  0  0  0  0  0  0  0  0  0
   -1.2990   -1.2499    0.0000 O   0  0  0  0  0  0  0  0  0  0  0  0
    1.2990    0.2501    0.0000 C   0  0  0  0  0  0  0  0  0  0  0  0
    1.2990    1.2500    0.0000 O   0  0  0  0  0  0  0  0  0  0  0  0
    0.4330   -0.2501    0.0000 C   0  0  0  0  0  0  0  0  0  0  0  0
    0.4330   -1.2500    0.0000 N   0  0  0  0  0  0  0  0  0  0  0  0
    2.1649   -0.2501    0.0000 O   0  0  0  0  0  0  0  0  0  0  0  0
   -0.4328    1.2500    0.0000 O   0  0  0  0  0  0  0  0  0  0  0  0
  5  9  1  0
  7  5  1  0
  1  7  1  0
  3  1  1  0
  2  3  1  0
  3  4  2  0
  5  6  2  0
  7  8  1  1
  1 10  1  1
V    9 *
M  END
>  <ChEBI ID>  (84) 
CHEBI:138107

>  <ChEBI Name>  (84) 
(3S)-3-hydroxy-L-asparagine residue

>  <Star>  (84) 
3

>  <Definition>  (84) 
An L-alpha-amino acid residue derived from (3S)-3-hydroxy-L-asparagine.

>  <SMILES>  (84) 
[C@H]([C@@H](C(*)=O)N*)(C(N)=O)O

>  <Formulae>  (84) 
C4H6N2O3

>  <Charge>  (84) 
0

>  <Mass>  (84) 
130.102

>  <Monoisotopic Mass>  (84) 
130.03784

>  <Synonyms>  (84) 
(3S)-3-hydroxy-L-asparagine residue

>  <PubChem Database Links>  (84) 
SID: 85337815

>  <Rhea Database Links>  (84) 
RHEA:54268
RHEA:54260
RHEA:54272

>  <Last Modified>  (84) 
20 Oct 2017

$$$$

     RDKit          2D

 10  9  0  0  0  0  0  0  0  0999 V2000
   -0.4330    0.2501    0.0000 C   0  0  0  0  0  0  0  0  0  0  0  0
   -2.1651    0.2501    0.0000 O   0  0  0  0  0  0  0  0  0  0  0  0
   -1.2990   -0.2499    0.0000 C   0  0  0  0  0  0  0  0  0  0  0  0
   -1.2990   -1.2499    0.0000 O   0  0  0  0  0  0  0  0  0  0  0  0
    1.2990    0.2501    0.0000 C   0  0  0  0  0  0  0  0  0  0  0  0
    1.2990    1.2500    0.0000 O   0  0  0  0  0  0  0  0  0  0  0  0
    0.4330   -0.2501    0.0000 C   0  0  0  0  0  0  0  0  0  0  0  0
    0.4330   -1.2500    0.0000 N   0  0  0  0  0  0  0  0  0  0  0  0
    2.1649   -0.2501    0.0000 O   0  0  0  0  0  0  0  0  0  0  0  0
   -0.4328    1.2500    0.0000 O   0  0  0  0  0  0  0  0  0  0  0  0
  5  9  1  0
  7  5  1  0
  1  7  1  0
  3  1  1  0
  2  3  1  0
  3  4  2  0
  5  6  2  0
  7  8  1  1
  1 10  1  1
V    9 *
M  END
>  <ChEBI ID>  (85) 
CHEBI:138111

>  <ChEBI Name>  (85) 
(3S)-3-hydroxy-L-aspartate residue

>  <Star>  (85) 
3

>  <Definition>  (85) 
A 3-hydroxy-L-aspartate residue in which the carbon bearing the alcoholic hydroxy group (position 3) has S-configuration.

>  <SMILES>  (85) 
[C@H]([C@@H](C(*)=O)N*)(C([O-])=O)O

>  <Formulae>  (85) 
C4H4NO4

>  <Charge>  (85) 
-1

>  <Mass>  (85) 
130.079

>  <Monoisotopic Mass>  (85) 
130.01403

>  <Synonyms>  (85) 
(2S,3S)-5-hydroxyaspartate residue
(3S)-3-hydroxy-L-aspartate residue

>  <PubChem Database Links>  (85) 
SID: 85337819

>  <Rhea Database Links>  (85) 
RHEA:54276
RHEA:54280

>  <Last Modified>  (85) 
31 Aug 2018

$$$$

     RDKit          2D

 30 32  0  0  0  0  0  0  0  0999 V2000
    8.2094   -3.0783    0.0000 N   0  0  0  0  0  0  0  0  0  0  0  0
    8.2094   -4.0776    0.0000 C   0  0  0  0  0  0  0  0  0  0  0  0
    7.3440   -4.5773    0.0000 N   0  0  0  0  0  0  0  0  0  0  0  0
    7.3438   -5.5766    0.0000 C   0  0  0  0  0  0  0  0  0  0  0  0
    8.2094   -6.0763    0.0000 N   0  0  0  0  0  0  0  0  0  0  0  0
    9.0747   -5.5766    0.0000 C   0  0  0  0  0  0  0  0  0  0  0  0
    9.0747   -4.5773    0.0000 C   0  0  0  0  0  0  0  0  0  0  0  0
   10.0251   -4.2685    0.0000 N   0  0  0  0  0  0  0  0  0  0  0  0
   10.6127   -5.0771    0.0000 C   0  0  0  0  0  0  0  0  0  0  0  0
   10.0251   -5.8855    0.0000 N   0  0  0  0  0  0  0  0  0  0  0  0
   10.3340   -6.8361    0.0000 C   0  0  0  0  0  0  0  0  0  0  0  0
    9.7465   -7.6446    0.0000 O   0  0  0  0  0  0  0  0  0  0  0  0
   10.3339   -8.4532    0.0000 C   0  0  0  0  0  0  0  0  0  0  0  0
   11.2843   -8.1443    0.0000 C   0  0  0  0  0  0  0  0  0  0  0  0
   12.0928   -8.7318    0.0000 O   0  0  0  0  0  0  0  0  0  0  0  0
   11.2845   -7.1449    0.0000 C   0  0  0  0  0  0  0  0  0  0  0  0
   12.0928   -6.5575    0.0000 O   0  0  0  0  0  0  0  0  0  0  0  0
    9.0257   -9.4036    0.0000 O   0  0  0  0  0  0  0  0  0  0  0  0
    8.1603  -10.9026    0.0000 O   0  0  0  0  0  0  0  0  0  0  0  0
    8.1603   -9.9033    0.0000 P   0  0  0  0  0  0  0  0  0  0  0  0
    8.1603   -8.9040    0.0000 O   0  0  0  0  0  0  0  0  0  0  0  0
    7.2949   -9.4036    0.0000 O   0  0  0  0  0  0  0  0  0  0  0  0
   10.0250   -9.4036    0.0000 C   0  0  0  0  0  0  0  0  0  0  0  0
    6.4391  -10.9601    0.0000 C   0  0  0  0  0  0  0  0  0  0  0  0
    6.4391   -9.9608    0.0000 C   0  0  0  0  0  0  0  0  0  0  0  0
    5.5736   -9.4612    0.0000 C   0  0  0  0  0  0  0  0  0  0  0  0
    5.5736   -8.4618    0.0000 N   0  0  0  0  0  0  0  0  0  0  0  0
    4.7081   -9.9608    0.0000 C   0  0  0  0  0  0  0  0  0  0  0  0
    3.8428   -9.4612    0.0000 O   0  0  0  0  0  0  0  0  0  0  0  0
    4.7082  -10.9601    0.0000 O   0  0  0  0  0  0  0  0  0  0  0  0
  1  2  1  0
  2  3  2  0
  2  7  1  0
  3  4  1  0
  4  5  2  0
  5  6  1  0
  6  7  2  0
  6 10  1  0
  7  8  1  0
  8  9  2  0
  9 10  1  0
 11 10  1  1
 11 12  1  0
 11 16  1  0
 12 13  1  0
 13 23  1  1
 13 14  1  0
 14 15  1  6
 14 16  1  0
 16 17  1  6
 18 20  1  0
 20 19  2  0
 20 22  1  0
 20 21  1  0
 23 18  1  0
 25 24  1  6
 25 26  1  0
 22 25  1  0
 26 27  1  1
 26 28  1  0
 28 29  1  0
 28 30  2  0
V   29 *
M  END
>  <ChEBI ID>  (86) 
CHEBI:138113

>  <ChEBI Name>  (86) 
O-adenyl-L-threonine(1-) residue

>  <Star>  (86) 
3

>  <Definition>  (86) 
An anionic amino-acid residue obtained by removal of a proton form the phosphate group of O-adenyl-L-threonine residue; major species at pH 7.3.

>  <SMILES>  (86) 
NC1=NC=NC2=C1N=CN2[C@@H]3O[C@H](COP(=O)(O[C@H](C)[C@H](N*)C(*)=O)[O-])[C@@H](O)[C@H]3O

>  <Formulae>  (86) 
C14H18N6O8P

>  <Charge>  (86) 
-1

>  <Mass>  (86) 
429.302

>  <Monoisotopic Mass>  (86) 
429.09237

>  <Synonyms>  (86) 
L-threonine-O-adenyl residue

>  <PubChem Database Links>  (86) 
SID: 85337821

>  <Rhea Database Links>  (86) 
RHEA:54292
RHEA:55932

>  <Last Modified>  (86) 
20 Oct 2017

$$$$

     RDKit          2D

 27 26  0  0  0  0  0  0  0  0999 V2000
   11.1066   -6.2521    0.0000 C   0  0  0  0  0  0  0  0  0  0  0  0
   11.9732   -6.7562    0.0000 O   0  0  0  0  0  0  0  0  0  0  0  0
   10.2398   -6.7562    0.0000 C   0  0  0  0  0  0  0  0  0  0  0  0
   11.1066   -5.2645    0.0000 O   0  0  0  0  0  0  0  0  0  0  0  0
   10.2601   -7.7436    0.0000 N   0  0  0  0  0  0  0  0  0  0  0  0
    5.9266   -6.2521    0.0000 N   0  0  0  0  0  0  0  0  0  0  0  0
    6.7935   -6.7361    0.0000 C   0  0  0  0  0  0  0  0  0  0  0  0
    9.3934   -6.2521    0.0000 C   0  0  0  0  0  0  0  0  0  0  0  0
    7.6600   -6.2521    0.0000 C   0  0  0  0  0  0  0  0  0  0  0  0
    8.5265   -6.7562    0.0000 C   0  0  0  0  0  0  0  0  0  0  0  0
    5.0658   -6.7662    0.0000 C   0  0  0  0  0  0  0  0  0  0  0  0
    4.1904   -6.2774    0.0000 C   0  0  0  0  0  0  0  0  0  0  0  0
    5.0805   -7.7683    0.0000 O   0  0  0  0  0  0  0  0  0  0  0  0
    3.3298   -6.7913    0.0000 C   0  0  0  0  0  0  0  0  0  0  0  0
    2.4544   -6.3028    0.0000 C   0  0  0  0  0  0  0  0  0  0  0  0
    1.5936   -6.8167    0.0000 C   0  0  0  0  0  0  0  0  0  0  0  0
    0.7183   -6.3282    0.0000 C   0  0  0  0  0  0  0  0  0  0  0  0
   -0.1425   -6.8421    0.0000 C   0  0  0  0  0  0  0  0  0  0  0  0
   -1.0179   -6.3536    0.0000 C   0  0  0  0  0  0  0  0  0  0  0  0
   -1.8786   -6.8675    0.0000 C   0  0  0  0  0  0  0  0  0  0  0  0
   -1.8786   -7.8700    0.0000 C   0  0  0  0  0  0  0  0  0  0  0  0
   -1.0105   -8.3712    0.0000 C   0  0  0  0  0  0  0  0  0  0  0  0
   -0.1423   -7.8700    0.0000 C   0  0  0  0  0  0  0  0  0  0  0  0
    0.7259   -8.3712    0.0000 C   0  0  0  0  0  0  0  0  0  0  0  0
    1.5940   -7.8700    0.0000 C   0  0  0  0  0  0  0  0  0  0  0  0
    2.4622   -8.3712    0.0000 C   0  0  0  0  0  0  0  0  0  0  0  0
    3.3304   -7.8700    0.0000 C   0  0  0  0  0  0  0  0  0  0  0  0
  2  1  1  0
  3  1  1  0
  4  1  2  0
  3  5  1  1
  3  8  1  0
  7  6  1  0
  9  7  1  0
 10  8  1  0
 10  9  1  0
  6 11  1  0
 11 12  1  0
 11 13  2  0
 12 14  1  0
 14 15  1  0
 15 16  1  0
 16 17  1  0
 17 18  1  0
 18 19  1  0
 19 20  1  0
 20 21  1  0
 21 22  1  0
 22 23  1  0
 23 24  1  0
 24 25  1  0
 25 26  1  0
 26 27  1  0
V    2 *
M  END
>  <ChEBI ID>  (87) 
CHEBI:138936

>  <ChEBI Name>  (87) 
N(6)-hexadecanoyl-L-lysine residue

>  <Star>  (87) 
3

>  <Definition>  (87) 
An N(6)-acyl-L-lysine residue derived from N(6)-hexadecanoyl-L-lysine.

>  <SMILES>  (87) 
C(*)([C@@H](N*)CCCCNC(CCCCCCCCCCCCCCC)=O)=O

>  <Formulae>  (87) 
C22H42N2O2

>  <Charge>  (87) 
0

>  <Mass>  (87) 
366.582

>  <Monoisotopic Mass>  (87) 
366.32463

>  <Synonyms>  (87) 
N(6)-hexadecanoyl-L-lysine residue
N(6)-palmitoyl-L-lysine residue
N(epsilon)-hexadecanoyl-L-lysine residue
N(epsilon)-palmitoyl-L-lysine residue

>  <PubChem Database Links>  (87) 
SID: 85338631

>  <Rhea Database Links>  (87) 
RHEA:59768
RHEA:55420

>  <Last Modified>  (87) 
13 Dec 2017

$$$$

     RDKit          2D

 24 23  0  0  0  0  0  0  0  0999 V2000
   14.9443  -20.6414    0.0000 C   0  0  0  0  0  0  0  0  0  0  0  0
   14.0858  -21.1565    0.0000 C   0  0  0  0  0  0  0  0  0  0  0  0
   13.2273  -20.6414    0.0000 C   0  0  0  0  0  0  0  0  0  0  0  0
   12.3688  -21.1565    0.0000 C   0  0  0  0  0  0  0  0  0  0  0  0
   11.5105  -20.6414    0.0000 C   0  0  0  0  0  0  0  0  0  0  0  0
   10.6520  -21.1565    0.0000 C   0  0  0  0  0  0  0  0  0  0  0  0
    9.7934  -20.6414    0.0000 C   0  0  0  0  0  0  0  0  0  0  0  0
   14.9443  -19.6684    0.0000 O   0  0  0  0  0  0  0  0  0  0  0  0
   15.8029  -21.1565    0.0000 O   0  0  0  0  0  0  0  0  0  0  0  0
    8.9181  -21.1271    0.0000 C   0  0  0  0  0  0  0  0  0  0  0  0
   10.6348  -19.1240    0.0000 C   0  0  0  0  0  0  0  0  0  0  0  0
   13.2277  -19.6692    0.0000 C   0  0  0  0  0  0  0  0  0  0  0  0
   12.3690  -19.1546    0.0000 C   0  0  0  0  0  0  0  0  0  0  0  0
   11.4843  -19.6542    0.0000 C   0  0  0  0  0  0  0  0  0  0  0  0
    8.0509  -19.6255    0.0000 C   0  0  0  0  0  0  0  0  0  0  0  0
    8.9178  -19.1248    0.0000 C   0  0  0  0  0  0  0  0  0  0  0  0
    8.0511  -20.6267    0.0000 C   0  0  0  0  0  0  0  0  0  0  0  0
    9.7851  -19.6253    0.0000 C   0  0  0  0  0  0  0  0  0  0  0  0
   16.6699  -20.6559    0.0000 C   0  0  0  0  0  0  0  0  0  0  0  0
   17.5369  -21.1565    0.0000 C   0  0  0  0  0  0  0  0  0  0  0  0
   18.4039  -20.6559    0.0000 C   0  0  0  0  0  0  0  0  0  0  0  0
   19.2710  -21.1565    0.0000 O   0  0  0  0  0  0  0  0  0  0  0  0
   18.4039  -19.6548    0.0000 O   0  0  0  0  0  0  0  0  0  0  0  0
   17.5369  -22.1576    0.0000 N   0  0  0  0  0  0  0  0  0  0  0  0
  2  1  1  0
  9  1  1  0
  8  1  2  0
  3  2  1  0
  3  4  1  0
  5  4  1  0
  5  6  1  0
  7  6  1  0
  7 10  1  0
 12 13  1  0
 13 14  1  0
 14 11  1  0
 16 15  1  0
 17 15  1  0
 18 16  1  0
 10 17  1  0
 11 18  1  0
 20 19  1  0
 20 21  1  0
 21 22  1  0
  9 19  1  0
 21 23  2  0
 20 24  1  1
V   22 *
M  END
>  <ChEBI ID>  (88) 
CHEBI:140185

>  <ChEBI Name>  (88) 
O-hexadecanoyl-L-serine residue

>  <Star>  (88) 
3

>  <Definition>  (88) 
An alpha-amino-acid residue that is an L-serine residue in which the alcoholic hydroxy group has been acylated with a hexadecanoyl group.

>  <SMILES>  (88) 
C(CCCCCCCCCCCCCCC)(OC[C@@H](C(*)=O)N*)=O

>  <Formulae>  (88) 
C19H35NO3

>  <Charge>  (88) 
0

>  <Mass>  (88) 
325.487

>  <Monoisotopic Mass>  (88) 
325.26169

>  <Synonyms>  (88) 
O-hexadecanoyl-L-serine residue
O-palmitoyl-L-serine residue

>  <PubChem Database Links>  (88) 
SID: 85339866

>  <Last Modified>  (88) 
09 Aug 2021

$$$$

     RDKit          2D

 42 45  0  0  0  0  0  0  0  0999 V2000
    4.7147    2.4412    0.0000 N   0  0  0  0  0  0  0  0  0  0  0  0
    5.6657    2.7502    0.0000 C   0  0  0  0  0  0  0  0  0  0  0  0
    4.4057    1.4902    0.0000 C   0  0  0  0  0  0  0  0  0  0  0  0
    4.1269    3.2502    0.0000 C   0  0  0  0  0  0  0  0  0  0  0  0
    5.6657    3.7502    0.0000 C   0  0  0  0  0  0  0  0  0  0  0  0
    6.5318    2.2502    0.0000 N   0  0  0  0  0  0  0  0  0  0  0  0
    3.4545    1.1811    0.0000 O   0  0  0  0  0  0  0  0  0  0  0  0
    4.9935    0.6811    0.0000 C   0  0  0  0  0  0  0  0  0  0  0  0
    4.7147    4.0593    0.0000 N   0  0  0  0  0  0  0  0  0  0  0  0
    6.5318    4.2502    0.0000 C   0  0  0  0  0  0  0  0  0  0  0  0
    7.3979    2.7502    0.0000 C   0  0  0  0  0  0  0  0  0  0  0  0
    3.4545    0.1811    0.0000 C   0  0  0  0  0  0  0  0  0  0  0  0
    4.4057   -0.1279    0.0000 C   0  0  0  0  0  0  0  0  0  0  0  0
    5.9935    0.6811    0.0000 O   0  0  0  0  0  0  0  0  0  0  0  0
    7.3979    3.7502    0.0000 N   0  0  0  0  0  0  0  0  0  0  0  0
    6.5318    5.2502    0.0000 N   0  0  0  0  0  0  0  0  0  0  0  0
    2.6456   -0.4067    0.0000 C   0  0  0  0  0  0  0  0  0  0  0  0
    4.7147   -1.0789    0.0000 O   0  0  0  0  0  0  0  0  0  0  0  0
    1.7320    0.0001    0.0000 O   0  0  0  0  0  0  0  0  0  0  0  0
   -1.7320   -0.0001    0.0000 O   0  0  0  0  0  0  0  0  0  0  0  0
   -2.5411   -0.5879    0.0000 C   0  0  0  0  0  0  0  0  0  0  0  0
   -3.4545   -0.1811    0.0000 C   0  0  0  0  0  0  0  0  0  0  0  0
   -3.6625    0.7970    0.0000 O   0  0  0  0  0  0  0  0  0  0  0  0
   -4.3206   -0.6811    0.0000 C   0  0  0  0  0  0  0  0  0  0  0  0
   -4.6570    0.9016    0.0000 C   0  0  0  0  0  0  0  0  0  0  0  0
   -5.0638   -0.0120    0.0000 C   0  0  0  0  0  0  0  0  0  0  0  0
   -4.4251   -1.6758    0.0000 O   0  0  0  0  0  0  0  0  0  0  0  0
   -5.1570    1.7675    0.0000 S   0  0  0  0  0  0  0  0  0  0  0  0
   -6.0419   -0.2199    0.0000 O   0  0  0  0  0  0  0  0  0  0  0  0
    0.0000    0.0000    0.0000 O   0  0  0  0  0  0  0  0  0  0  0  0
    0.8661   -1.4999    0.0000 O   0  0  0  0  0  0  0  0  0  0  0  0
   -0.8659   -1.5000    0.0000 O   0  0  0  0  0  0  0  0  0  0  0  0
   -0.8659   -0.5000    0.0000 P   0  0  0  0  0  0  0  0  0  0  0  0
   -0.8661    0.4999    0.0000 O   0  0  0  0  0  0  0  0  0  0  0  0
    0.8661   -0.5000    0.0000 P   0  0  0  0  0  0  0  0  0  0  0  0
    0.8659    0.5000    0.0000 O   0  0  0  0  0  0  0  0  0  0  0  0
   -6.1570    1.7675    0.0000 C   0  0  0  0  0  0  0  0  0  0  0  0
   -6.6570    2.6335    0.0000 C   0  0  0  0  0  0  0  0  0  0  0  0
   -7.6570    2.6335    0.0000 N   0  0  0  0  0  0  0  0  0  0  0  0
   -6.1571    3.4995    0.0000 C   0  0  0  0  0  0  0  0  0  0  0  0
   -6.6571    4.3656    0.0000 O   0  0  0  0  0  0  0  0  0  0  0  0
   -5.1571    3.4995    0.0000 O   0  0  0  0  0  0  0  0  0  0  0  0
  1  2  1  0
  3  1  1  1
  1  4  1  0
  2  5  2  0
  2  6  1  0
  3  7  1  0
  3  8  1  0
  4  9  2  0
  5 10  1  0
  6 11  2  0
  7 12  1  0
  8 13  1  0
  8 14  1  6
 10 15  2  0
 10 16  1  0
 12 17  1  1
 13 18  1  6
 17 19  1  0
 20 21  1  0
 22 21  1  6
 22 23  1  0
 22 24  1  0
 23 25  1  0
 24 26  1  0
 24 27  1  1
 25 28  1  0
 26 29  1  1
  5  9  1  0
 11 15  1  0
 12 13  1  0
 25 26  1  0
 19 35  1  0
 35 30  1  0
 30 33  1  0
 35 31  2  0
 33 20  1  0
 33 32  2  0
 33 34  1  0
 35 36  1  0
 28 37  1  0
 38 37  1  0
 38 39  1  6
 38 40  1  0
 40 41  2  0
 40 42  1  0
V   42 *
M  END
>  <ChEBI ID>  (89) 
CHEBI:140607

>  <ChEBI Name>  (89) 
S-(ADP-D-ribosyl)-L-cysteine(2-) residue

>  <Star>  (89) 
2

>  <Definition>  (89) 
An L-alpha-amino acid residue derived from S-(ADP-D-ribosyl)-L-cysteine.

>  <SMILES>  (89) 
N1(C2=C(C(=NC=N2)N)N=C1)[C@@H]3O[C@H](COP(OP(OC[C@H]4OC(SC[C@H](N*)C(=O)*)[C@@H]([C@@H]4O)O)(=O)[O-])(=O)[O-])[C@H]([C@H]3O)O

>  <Formulae>  (89) 
C18H24N6O14P2S

>  <Charge>  (89) 
-2

>  <Mass>  (89) 
642.429

>  <Monoisotopic Mass>  (89) 
642.05464

>  <Synonyms>  (89) 
S-(ADP-D-ribosyl)-L-cysteine residue

>  <PubChem Database Links>  (89) 
SID: 85340285

>  <Rhea Database Links>  (89) 
RHEA:56612
RHEA:58240

$$$$

     RDKit          2D

 18 17  0  0  0  0  0  0  0  0999 V2000
    8.1442  -21.9288    0.0000 S   0  0  0  0  0  0  0  0  0  0  0  0
    9.0103  -21.4288    0.0000 C   0  0  0  0  0  0  0  0  0  0  0  0
    9.8763  -21.9288    0.0000 C   0  0  0  0  0  0  0  0  0  0  0  0
   10.7423  -21.4288    0.0000 C   0  0  0  0  0  0  0  0  0  0  0  0
   11.6084  -21.9288    0.0000 O   0  0  0  0  0  0  0  0  0  0  0  0
    9.8763  -22.9288    0.0000 N   0  0  0  0  0  0  0  0  0  0  0  0
   10.7423  -20.4288    0.0000 O   0  0  0  0  0  0  0  0  0  0  0  0
    3.8141  -21.4288    0.0000 C   0  0  0  0  0  0  0  0  0  0  0  0
    4.6800  -21.9288    0.0000 O   0  0  0  0  0  0  0  0  0  0  0  0
    7.2781  -21.4288    0.0000 C   0  0  0  0  0  0  0  0  0  0  0  0
    6.4122  -21.9288    0.0000 C   0  0  0  0  0  0  0  0  0  0  0  0
    5.5461  -21.4288    0.0000 C   0  0  0  0  0  0  0  0  0  0  0  0
    2.9480  -21.9288    0.0000 R   0  0  0  0  0  0  0  0  0  0  0  0
    3.8141  -20.4288    0.0000 O   0  0  0  0  0  0  0  0  0  0  0  0
    6.4121  -22.9288    0.0000 O   0  0  0  0  0  0  0  0  0  0  0  0
    5.5460  -23.4288    0.0000 C   0  0  0  0  0  0  0  0  0  0  0  0
    5.5460  -24.4287    0.0000 O   0  0  0  0  0  0  0  0  0  0  0  0
    4.6800  -22.9288    0.0000 R   0  0  0  0  0  0  0  0  0  0  0  0
  1  2  1  0
  2  3  1  0
  3  4  1  0
  4  5  1  0
  3  6  1  1
  4  7  2  0
 14  8  2  0
  8  9  1  0
 11 10  1  6
 11 15  1  0
 11 12  1  0
  9 12  1  0
 13  8  1  0
 16 15  1  0
 18 16  1  0
 17 16  2  0
  1 10  1  0
V    5 *
V   13 *
V   18 *
M  END
>  <ChEBI ID>  (90) 
CHEBI:140656

>  <ChEBI Name>  (90) 
N-terminal S-1,2-diacyl-sn-glyceryl-L-cysteine(1+) residue

>  <Star>  (90) 
2

>  <SMILES>  (90) 
S(C[C@@H](C(*)=O)[NH3+])C[C@H](OC(*)=O)COC(=O)*

>  <Formulae>  (90) 
C8H11NO5SR2

>  <Charge>  (90) 
+1

>  <Mass>  (90) 
233.243

>  <Monoisotopic Mass>  (90) 
233.03579

>  <Synonyms>  (90) 
N-terminal S-1,2-diacyl-sn-glyceryl-L-cysteine

>  <MetaCyc Database Links>  (90) 
Diacylglycerol-Prolipoproteins

>  <PubMed citation Links>  (90) 
2032623
21676878

>  <PubChem Database Links>  (90) 
SID: 85340334

>  <Rhea Database Links>  (90) 
RHEA:48228

$$$$

     RDKit          2D

 12 11  0  0  0  0  0  0  0  0999 V2000
   10.6317  -21.2449    0.0000 C   0  0  0  0  0  0  0  0  0  0  0  0
   10.6317  -20.2449    0.0000 O   0  0  0  0  0  0  0  0  0  0  0  0
    9.7656  -21.7449    0.0000 C   0  0  0  0  0  0  0  0  0  0  0  0
    9.7656  -22.7449    0.0000 N   0  0  0  0  0  0  0  0  0  0  0  0
    8.8996  -21.2449    0.0000 C   0  0  0  0  0  0  0  0  0  0  0  0
    8.0336  -22.7449    0.0000 C   0  0  0  0  0  0  0  0  0  0  0  0
    8.8996  -23.2449    0.0000 C   0  0  0  0  0  0  0  0  0  0  0  0
   11.4977  -21.7448    0.0000 O   0  0  0  0  0  0  0  0  0  0  0  0
    8.8996  -24.2450    0.0000 O   0  0  0  0  0  0  0  0  0  0  0  0
    8.8996  -20.2449    0.0000 C   0  0  0  0  0  0  0  0  0  0  0  0
    8.0337  -19.7449    0.0000 O   0  0  0  0  0  0  0  0  0  0  0  0
    9.7657  -19.7449    0.0000 O   0  0  0  0  0  0  0  0  0  0  0  0
  1  8  1  0
  2  1  2  0
  3  1  1  0
  3  4  1  0
  3  5  1  1
  7  4  1  0
  7  9  2  0
  7  6  1  0
  5 10  1  0
 10 11  1  0
 10 12  2  0
V    8 *
M  END
>  <ChEBI ID>  (91) 
CHEBI:140856

>  <ChEBI Name>  (91) 
N-terminal N-acetyl-L-aspartate residue

>  <Star>  (91) 
2

>  <Definition>  (91) 
An N-terminal alpha-amino-acid residue derived from N-terminal N-acetyl-L-aspartate; major microspecies at pH 7.3.

>  <SMILES>  (91) 
C(*)(=O)[C@@H](NC(=O)C)CC([O-])=O

>  <Formulae>  (91) 
C6H7NO4

>  <Charge>  (91) 
-1

>  <Mass>  (91) 
157.124

>  <Monoisotopic Mass>  (91) 
157.03751

>  <Synonyms>  (91) 
N-terminal N(alpha)-acetyl-L-aspartate residue

>  <PubChem Database Links>  (91) 
SID: 85340531

$$$$

     RDKit          2D

 13 12  0  0  0  0  0  0  0  0999 V2000
   10.6317  -21.2449    0.0000 C   0  0  0  0  0  0  0  0  0  0  0  0
   10.6317  -20.2449    0.0000 O   0  0  0  0  0  0  0  0  0  0  0  0
    9.7656  -21.7449    0.0000 C   0  0  0  0  0  0  0  0  0  0  0  0
    9.7656  -22.7449    0.0000 N   0  0  0  0  0  0  0  0  0  0  0  0
    8.8996  -21.2449    0.0000 C   0  0  0  0  0  0  0  0  0  0  0  0
    8.0336  -22.7449    0.0000 C   0  0  0  0  0  0  0  0  0  0  0  0
    8.8996  -23.2449    0.0000 C   0  0  0  0  0  0  0  0  0  0  0  0
   11.4977  -21.7448    0.0000 O   0  0  0  0  0  0  0  0  0  0  0  0
    8.8996  -24.2449    0.0000 O   0  0  0  0  0  0  0  0  0  0  0  0
    8.8996  -20.2449    0.0000 C   0  0  0  0  0  0  0  0  0  0  0  0
    8.0337  -19.7449    0.0000 C   0  0  0  0  0  0  0  0  0  0  0  0
    8.0337  -18.7449    0.0000 O   0  0  0  0  0  0  0  0  0  0  0  0
    7.1676  -20.2449    0.0000 O   0  0  0  0  0  0  0  0  0  0  0  0
  1  8  1  0
  2  1  2  0
  3  1  1  0
  3  4  1  0
  3  5  1  1
  7  4  1  0
  7  9  2  0
  7  6  1  0
  5 10  1  0
 10 11  1  0
 11 12  2  0
 11 13  1  0
V    8 *
M  END
>  <ChEBI ID>  (92) 
CHEBI:140857

>  <ChEBI Name>  (92) 
N-terminal N-acetyl-L-glutamate residue

>  <Star>  (92) 
2

>  <Definition>  (92) 
An N-terminal alpha-amino-acid residue derived from N-terminal N-acetyl-L-glutamate; major microspecies at pH 7.3.

>  <SMILES>  (92) 
C(*)(=O)[C@@H](NC(=O)C)CCC(=O)[O-]

>  <Formulae>  (92) 
C7H9NO4

>  <Charge>  (92) 
-1

>  <Mass>  (92) 
171.151

>  <Monoisotopic Mass>  (92) 
171.05316

>  <Synonyms>  (92) 
N-terminal N(alpha)-acetyl-L-glutamate residue

>  <PubChem Database Links>  (92) 
SID: 85340532

$$$$

     RDKit          2D

 12 11  0  0  0  0  0  0  0  0999 V2000
   10.6317  -21.2449    0.0000 C   0  0  0  0  0  0  0  0  0  0  0  0
   10.6317  -20.2449    0.0000 O   0  0  0  0  0  0  0  0  0  0  0  0
    9.7656  -21.7449    0.0000 C   0  0  0  0  0  0  0  0  0  0  0  0
    9.7656  -22.7449    0.0000 N   0  0  0  0  0  0  0  0  0  0  0  0
    8.8997  -21.2449    0.0000 C   0  0  0  0  0  0  0  0  0  0  0  0
    8.0335  -22.7449    0.0000 C   0  0  0  0  0  0  0  0  0  0  0  0
    8.8997  -23.2449    0.0000 C   0  0  0  0  0  0  0  0  0  0  0  0
   11.4978  -21.7448    0.0000 O   0  0  0  0  0  0  0  0  0  0  0  0
    8.8997  -24.2449    0.0000 O   0  0  0  0  0  0  0  0  0  0  0  0
    8.8997  -20.2449    0.0000 C   0  0  0  0  0  0  0  0  0  0  0  0
    8.0335  -21.7449    0.0000 C   0  0  0  0  0  0  0  0  0  0  0  0
    7.1676  -21.2448    0.0000 C   0  0  0  0  0  0  0  0  0  0  0  0
  1  8  1  0
  2  1  2  0
  3  1  1  0
  3  4  1  1
  3  5  1  0
  7  4  1  0
  7  9  2  0
  7  6  1  0
  5 10  1  6
  5 11  1  0
 11 12  1  0
V    8 *
M  END
>  <ChEBI ID>  (93) 
CHEBI:140858

>  <ChEBI Name>  (93) 
N-terminal N-acetyl-L-isoleucine residue

>  <Star>  (93) 
3

>  <Definition>  (93) 
An N-terminal alpha-amino-acid residue derived from N-terminal N-acetyl-L-isoleucine; major microspecies at pH 7.3.

>  <SMILES>  (93) 
C(*)(=O)[C@@H](NC(=O)C)[C@@H](C)CC

>  <Formulae>  (93) 
C8H14NO2

>  <Charge>  (93) 
0

>  <Mass>  (93) 
156.203

>  <Monoisotopic Mass>  (93) 
156.10245

>  <Synonyms>  (93) 
N-terminal N(alpha)-acetyl-L-isoleucine residue

>  <PubChem Database Links>  (93) 
SID: 85340533

>  <Last Modified>  (93) 
05 Jun 2018

$$$$

     RDKit          2D

 11 11  0  0  1  0  0  0  0  0999 V2000
    9.5756   -5.8419    0.0000 O   0  0  0  0  0  0  0  0  0  0  0  0
    8.8302   -6.5132    0.0000 C   0  0  0  0  0  0  0  0  0  0  0  0
    9.0387   -7.4941    0.0000 O   0  0  0  0  0  0  0  0  0  0  0  0
    7.8763   -6.2032    0.0000 C   0  0  0  0  0  0  0  0  0  0  0  0
    7.5663   -5.2494    0.0000 C   0  0  0  0  0  0  0  0  0  0  0  0
    6.5635   -5.2494    0.0000 C   0  0  0  0  0  0  0  0  0  0  0  0
    6.2535   -6.2034    0.0000 C   0  0  0  0  0  0  0  0  0  0  0  0
    7.0650   -6.7927    0.0000 N   0  0  0  0  0  0  0  0  0  0  0  0
    7.9359   -8.2751    0.0000 O   0  0  0  0  0  0  0  0  0  0  0  0
    7.0715   -7.7838    0.0000 C   0  0  0  0  0  0  0  0  0  0  0  0
    6.2138   -8.2867    0.0000 C   0  0  0  0  0  0  0  0  0  0  0  0
  7  6  1  0
  2  1  2  0
  3  2  1  0
  4  2  1  1
  6  5  1  0
  5  4  1  0
  4  8  1  0
  7  8  1  0
  8 10  1  0
 10  9  2  0
 10 11  1  0
V    3 *
M  END
>  <ChEBI ID>  (94) 
CHEBI:140859

>  <ChEBI Name>  (94) 
N-terminal N-acetyl-L-proline residue

>  <Star>  (94) 
3

>  <Definition>  (94) 
An N-terminal alpha-amino-acid residue derived from N-terminal N-acetyl-L-proline; major microspecies at pH 7.3.

>  <SMILES>  (94) 
O=C(*)[C@@]1(CCCN1C(=O)C)[H]

>  <Formulae>  (94) 
C7H10NO2

>  <Charge>  (94) 
0

>  <Mass>  (94) 
140.160

>  <Monoisotopic Mass>  (94) 
140.07115

>  <Synonyms>  (94) 
N-terminal N(alpha)-acetyl-L-proline residue

>  <PubChem Database Links>  (94) 
SID: 85340534

>  <Last Modified>  (94) 
04 Jun 2018

$$$$

     RDKit          2D

 11 10  0  0  0  0  0  0  0  0999 V2000
   16.0627   -6.9271    0.0000 C   0  0  0  0  0  0  0  0  0  0  0  0
   16.0627   -7.9271    0.0000 C   0  0  0  0  0  0  0  0  0  0  0  0
   16.9288   -8.4272    0.0000 C   0  0  0  0  0  0  0  0  0  0  0  0
   17.7948   -7.9271    0.0000 C   0  0  0  0  0  0  0  0  0  0  0  0
   18.6607   -8.4272    0.0000 O   0  0  0  0  0  0  0  0  0  0  0  0
   17.7948   -6.9270    0.0000 O   0  0  0  0  0  0  0  0  0  0  0  0
   16.9288   -9.4271    0.0000 N   0  0  0  0  0  0  0  0  0  0  0  0
   15.1968   -8.4272    0.0000 O   0  0  0  0  0  0  0  0  0  0  0  0
   14.3307   -7.9271    0.0000 C   0  0  0  0  0  0  0  0  0  0  0  0
   13.4647   -8.4272    0.0000 C   0  0  0  0  0  0  0  0  0  0  0  0
   14.3307   -6.9271    0.0000 O   0  0  0  0  0  0  0  0  0  0  0  0
  2  1  1  6
  2  3  1  0
  3  4  1  0
  4  5  1  0
  4  6  2  0
  3  7  1  1
  2  8  1  0
  8  9  1  0
  9 10  1  0
  9 11  2  0
V    5 *
M  END
>  <ChEBI ID>  (95) 
CHEBI:141025

>  <ChEBI Name>  (95) 
O-acetyl-L-threonine residue

>  <Star>  (95) 
3

>  <Definition>  (95) 
An L-alpha-amino acid residue derived from O-acetyl-L-threonine.

>  <SMILES>  (95) 
C[C@H]([C@@H](C(*)=O)N*)OC(C)=O

>  <Formulae>  (95) 
C6H9NO3

>  <Charge>  (95) 
0

>  <Mass>  (95) 
143.141

>  <Monoisotopic Mass>  (95) 
143.05824

>  <Synonyms>  (95) 
O-acetyl-L-threonine residue

>  <PubMed citation Links>  (95) 
19105697
16728640

>  <RESID Database Links>  (95) 
AA0423

>  <PubChem Database Links>  (95) 
SID: 85340697

>  <Rhea Database Links>  (95) 
RHEA:65340

>  <Last Modified>  (95) 
22 Jul 2019

$$$$

     RDKit          2D

 25 27  0  0  0  0  0  0  0  0999 V2000
   -0.5408    1.3583    0.0000 C   0  0  0  0  0  0  0  0  0  0  0  0
   -0.2336    2.3039    0.0000 C   0  0  0  0  0  0  0  0  0  0  0  0
   -0.8989    3.0429    0.0000 C   0  0  0  0  0  0  0  0  0  0  0  0
   -1.8715    2.8362    0.0000 C   0  0  0  0  0  0  0  0  0  0  0  0
   -2.1788    1.8905    0.0000 C   0  0  0  0  0  0  0  0  0  0  0  0
   -1.5134    1.1515    0.0000 C   0  0  0  0  0  0  0  0  0  0  0  0
    0.2636    0.7738    0.0000 N   0  0  0  0  0  0  0  0  0  0  0  0
    1.6220    2.8011    0.0000 C   0  0  0  0  0  0  0  0  0  0  0  0
    2.4832    2.3039    0.0000 C   0  0  0  0  0  0  0  0  0  0  0  0
    2.2258    1.3434    0.0000 N   0  0  0  0  0  0  0  0  0  0  0  0
    3.3444    2.8011    0.0000 C   0  0  0  0  0  0  0  0  0  0  0  0
    3.3444    3.7955    0.0000 O   0  0  0  0  0  0  0  0  0  0  0  0
    4.2054    2.3039    0.0000 O   0  0  0  0  0  0  0  0  0  0  0  0
    1.0681    1.3583    0.0000 C   0  0  0  0  0  0  0  0  0  0  0  0
    0.7609    2.3039    0.0000 C   0  0  0  0  0  0  0  0  0  0  0  0
    0.7609    3.2983    0.0000 C   0  0  0  0  0  0  0  0  0  0  0  0
    1.6220    3.7955    0.0000 C   0  0  0  0  0  0  0  0  0  0  0  0
    2.4832    5.2871    0.0000 C   0  0  0  0  0  0  0  0  0  0  0  0
    2.4832    6.2815    0.0000 C   0  0  0  0  0  0  0  0  0  0  0  0
    3.3444    6.7786    0.0000 C   0  0  0  0  0  0  0  0  0  0  0  0
    2.4832    8.2702    0.0000 C   0  0  0  0  0  0  0  0  0  0  0  0
    3.3444    7.7730    0.0000 C   0  0  0  0  0  0  0  0  0  0  0  0
    4.2054    8.2702    0.0000 C   0  0  0  0  0  0  0  0  0  0  0  0
    1.6220    4.7899    0.0000 C   0  0  0  0  0  0  0  0  0  0  0  0
    0.7609    5.2871    0.0000 C   0  0  0  0  0  0  0  0  0  0  0  0
 14  7  1  1
  7  1  1  0
 14 15  1  0
 15  2  1  0
  6  1  2  0
  1  2  1  0
  3  2  2  0
  3  4  1  0
  4  5  2  0
  5  6  1  0
 15  8  1  0
  8  9  1  0
  9 11  1  1
  9 10  1  0
 10 14  1  0
 11 12  2  0
 11 13  1  0
 15 16  1  6
 16 17  1  0
 17 24  2  0
 24 18  1  0
 18 19  1  0
 19 20  1  0
 20 22  2  3
 22 21  1  0
 22 23  1  0
 24 25  1  0
V   13 *
M  END
>  <ChEBI ID>  (96) 
CHEBI:141127

>  <ChEBI Name>  (96) 
(2S,3R)-3-geranyl-2,3-dihydro-2,N(alpha)-cyclo-L-tryptophan residue

>  <Star>  (96) 
3

>  <Definition>  (96) 
An alpha-amino-acid residue formed from (2S,3R)-3-geranyl-2,3-dihydro-2,N(alpha)-cyclo-L-tryptophan.

>  <SMILES>  (96) 
C1=2N[C@]3([C@@](C1=CC=CC2)(C[C@@H](C(=O)*)N3*)C/C=C(/CCC=C(C)C)\C)[H]

>  <Formulae>  (96) 
C21H26N2O

>  <Charge>  (96) 
0

>  <Mass>  (96) 
322.445

>  <Monoisotopic Mass>  (96) 
322.20451

>  <Synonyms>  (96) 
(2S,3R)-3-geranyl-2,3-dihydro-2,N(alpha)-cyclo-L-tryptophan residue

>  <PubMed citation Links>  (96) 
21821957
16407988

>  <PubChem Database Links>  (96) 
SID: 85340799

>  <Rhea Database Links>  (96) 
RHEA:59492

>  <Last Modified>  (96) 
04 Jul 2018

$$$$

     RDKit          2D

 10  9  0  0  0  0  0  0  0  0999 V2000
   10.1595    0.1499    0.0000 C   0  0  0  0  0  0  0  0  0  0  0  0
    9.2935   -0.3501    0.0000 C   0  0  0  0  0  0  0  0  0  0  0  0
   10.1595    1.1499    0.0000 O   0  0  0  0  0  0  0  0  0  0  0  0
    9.2935   -1.3500    0.0000 N   0  0  0  0  0  0  0  0  0  0  0  0
    8.4275    0.1499    0.0000 C   0  0  0  0  0  0  0  0  0  0  0  0
    7.5615   -0.3501    0.0000 O   0  0  0  0  0  0  0  0  0  0  0  0
   11.0256   -0.3501    0.0000 O   0  0  0  0  0  0  0  0  0  0  0  0
    6.6954    0.1501    0.0000 C   0  0  0  0  0  0  0  0  0  0  0  0
    6.6956    1.1500    0.0000 O   0  0  0  0  0  0  0  0  0  0  0  0
    5.8294   -0.3498    0.0000 C   0  0  0  0  0  0  0  0  0  0  0  0
  1  2  1  0
  1  3  2  0
  7  1  1  0
  2  4  1  1
  2  5  1  0
  5  6  1  0
  6  8  1  0
  9  8  2  0
 10  8  1  0
V    7 *
M  END
>  <ChEBI ID>  (97) 
CHEBI:141128

>  <ChEBI Name>  (97) 
O-acetyl-L-serine residue

>  <Star>  (97) 
3

>  <Definition>  (97) 
An L-alpha-amino acid residue derived from O-acetyl-L-serine.

>  <SMILES>  (97) 
C([C@@H](N*)COC(=O)C)(=O)*

>  <Formulae>  (97) 
C5H7NO3

>  <Charge>  (97) 
0

>  <Mass>  (97) 
129.114

>  <Monoisotopic Mass>  (97) 
129.04259

>  <Synonyms>  (97) 
O-acetyl-L-serine residue
O-acetylserine residue
serine acetate ester residue

>  <RESID Database Links>  (97) 
AA0364

>  <PubChem Database Links>  (97) 
SID: 85340800

>  <Rhea Database Links>  (97) 
RHEA:59392
RHEA:59512

>  <Last Modified>  (97) 
24 Sep 2019

$$$$

     RDKit          2D

 25 24  0  0  0  0  0  0  0  0999 V2000
    0.4330    0.2499    0.0000 C   0  0  0  0  0  0  0  0  0  0  0  0
   -0.4330   -0.2501    0.0000 C   0  0  0  0  0  0  0  0  0  0  0  0
   -1.2990    0.2499    0.0000 C   0  0  0  0  0  0  0  0  0  0  0  0
   -2.1651   -0.2501    0.0000 C   0  0  0  0  0  0  0  0  0  0  0  0
   -3.0310    0.2499    0.0000 N   0  0  0  0  0  0  0  0  0  0  0  0
    2.1651    0.2501    0.0000 C   0  0  0  0  0  0  0  0  0  0  0  0
    2.1651    1.2501    0.0000 O   0  0  0  0  0  0  0  0  0  0  0  0
    1.2990   -0.2501    0.0000 C   0  0  0  0  0  0  0  0  0  0  0  0
    1.2990   -1.2501    0.0000 N   0  0  0  0  0  0  0  0  0  0  0  0
    3.0312   -0.2499    0.0000 O   0  0  0  0  0  0  0  0  0  0  0  0
   -3.8971   -0.2501    0.0000 C   0  0  0  0  0  0  0  0  0  0  0  0
   -4.7630    0.2499    0.0000 C   0  0  0  0  0  0  0  0  0  0  0  0
   -5.6291   -0.2501    0.0000 C   0  0  0  0  0  0  0  0  0  0  0  0
   -6.4951    0.2499    0.0000 C   0  0  0  0  0  0  0  0  0  0  0  0
   -7.3612   -0.2501    0.0000 C   0  0  0  0  0  0  0  0  0  0  0  0
   -8.2271    0.2499    0.0000 C   0  0  0  0  0  0  0  0  0  0  0  0
   -9.0932   -0.2501    0.0000 C   0  0  0  0  0  0  0  0  0  0  0  0
   -9.9593    0.2499    0.0000 C   0  0  0  0  0  0  0  0  0  0  0  0
   -3.8971   -1.2501    0.0000 O   0  0  0  0  0  0  0  0  0  0  0  0
   -9.9593    1.2499    0.0000 C   0  0  0  0  0  0  0  0  0  0  0  0
   -9.0933    1.7499    0.0000 C   0  0  0  0  0  0  0  0  0  0  0  0
   -8.2273    1.2499    0.0000 C   0  0  0  0  0  0  0  0  0  0  0  0
   -7.3612    1.7499    0.0000 C   0  0  0  0  0  0  0  0  0  0  0  0
   -6.4951    1.2501    0.0000 C   0  0  0  0  0  0  0  0  0  0  0  0
   -5.6292    1.7501    0.0000 C   0  0  0  0  0  0  0  0  0  0  0  0
 10  6  1  0
  8  6  1  0
  8  1  1  0
  2  1  1  0
  3  2  1  0
  4  3  1  0
  5  4  1  0
  6  7  2  0
  8  9  1  1
 11 12  1  0
 12 13  1  0
 13 14  1  0
 14 15  1  0
 15 16  1  0
 16 17  1  0
 17 18  1  0
  5 11  1  0
 11 19  2  0
 18 20  1  0
 20 21  1  0
 21 22  1  0
 22 23  1  0
 23 24  1  0
 24 25  1  0
V   10 *
M  END
>  <ChEBI ID>  (98) 
CHEBI:141129

>  <ChEBI Name>  (98) 
N(6)-tetradecanoyl-L-lysine residue

>  <Star>  (98) 
2

>  <Definition>  (98) 
An alpha-amino-acid residue derived from N(6)-tetradecanoyl-L-lysine.

>  <SMILES>  (98) 
C([C@@H](C(*)=O)N*)CCCNC(CCCCCCCCCCCCC)=O

>  <Formulae>  (98) 
C20H38N2O2

>  <Charge>  (98) 
0

>  <Mass>  (98) 
338.529

>  <Monoisotopic Mass>  (98) 
338.29333

>  <Synonyms>  (98) 
N(6)-myristoyl-L-lysine residue
N(6)-tetradecanoyl-L-lysine residue

>  <PubChem Database Links>  (98) 
SID: 85340801

>  <Rhea Database Links>  (98) 
RHEA:59752

$$$$

     RDKit          2D

 11 10  0  0  0  0  0  0  0  0999 V2000
   12.3836  -24.1309    0.0000 C   0  0  0  0  0  0  0  0  0  0  0  0
   13.2483  -23.6295    0.0000 C   0  0  0  0  0  0  0  0  0  0  0  0
   11.5190  -23.6295    0.0000 C   0  0  0  0  0  0  0  0  0  0  0  0
   12.3836  -25.1292    0.0000 N   0  0  0  0  0  0  0  0  0  0  0  0
   14.1173  -24.1309    0.0000 O   0  0  0  0  0  0  0  0  0  0  0  0
   13.2483  -22.6311    0.0000 O   0  0  0  0  0  0  0  0  0  0  0  0
   10.6541  -24.1309    0.0000 C   0  0  0  0  0  0  0  0  0  0  0  0
    9.7895  -23.6295    0.0000 C   0  0  0  0  0  0  0  0  0  0  0  0
    8.9205  -24.1309    0.0000 C   0  0  0  0  0  0  0  0  0  0  0  0
    8.0557  -23.6295    0.0000 N   0  0  0  0  0  0  0  0  0  0  0  0
   11.5190  -22.6300    0.0000 O   0  0  0  0  0  0  0  0  0  0  0  0
  1  2  1  0
  1  3  1  0
  1  4  1  1
  2  5  1  0
  2  6  2  0
  3  7  1  0
  7  8  1  0
  8  9  1  0
  9 10  1  0
  3 11  1  6
V    5 *
M  END
>  <ChEBI ID>  (99) 
CHEBI:141492

>  <ChEBI Name>  (99) 
(3S)-3-hydroxy-L-lysine(1+) residue

>  <Star>  (99) 
2

>  <Definition>  (99) 
An amino-acid cation residue obtained by protonation of the side-chain amino group of (3S)-3-hydroxy-L-lysine residue residue; major species at pH 7.3.

>  <SMILES>  (99) 
[C@@H](C(*)=O)([C@H](CCC[NH3+])O)N*

>  <Formulae>  (99) 
C6H13N2O2

>  <Charge>  (99) 
+1

>  <Mass>  (99) 
145.180

>  <Monoisotopic Mass>  (99) 
145.09770

>  <Synonyms>  (99) 
(3S)-3-hydroxy-L-lysine residue

>  <PubChem Database Links>  (99) 
SID: 85341163

>  <Rhea Database Links>  (99) 
RHEA:57152

$$$$

     RDKit          2D

 11 10  0  0  0  0  0  0  0  0999 V2000
   12.3836  -24.1309    0.0000 C   0  0  0  0  0  0  0  0  0  0  0  0
   13.2483  -23.6295    0.0000 C   0  0  0  0  0  0  0  0  0  0  0  0
   11.5190  -23.6295    0.0000 C   0  0  0  0  0  0  0  0  0  0  0  0
   12.3836  -25.1292    0.0000 N   0  0  0  0  0  0  0  0  0  0  0  0
   14.1173  -24.1309    0.0000 O   0  0  0  0  0  0  0  0  0  0  0  0
   13.2483  -22.6311    0.0000 O   0  0  0  0  0  0  0  0  0  0  0  0
   10.6541  -24.1309    0.0000 C   0  0  0  0  0  0  0  0  0  0  0  0
    9.7895  -23.6295    0.0000 C   0  0  0  0  0  0  0  0  0  0  0  0
    8.9205  -24.1309    0.0000 C   0  0  0  0  0  0  0  0  0  0  0  0
    8.0557  -23.6295    0.0000 N   0  0  0  0  0  0  0  0  0  0  0  0
   10.6540  -25.1309    0.0000 O   0  0  0  0  0  0  0  0  0  0  0  0
  1  2  1  0
  1  3  1  0
  1  4  1  1
  2  5  1  0
  2  6  2  0
  3  7  1  0
  7  8  1  0
  8  9  1  0
  9 10  1  0
  7 11  1  0
V    5 *
M  END
>  <ChEBI ID>  (100) 
CHEBI:141495

>  <ChEBI Name>  (100) 
4-hydroxy-L-lysine(1+) residue

>  <Star>  (100) 
2

>  <Definition>  (100) 
An amino-acid cation residue obtained by protonation of the side-chain amino group of 4-hydroxy-L-lysine residue residue; major species at pH 7.3.

>  <SMILES>  (100) 
[C@@H](C(*)=O)(CC(CC[NH3+])O)N*

>  <Formulae>  (100) 
C6H13N2O2

>  <Charge>  (100) 
+1

>  <Mass>  (100) 
145.180

>  <Monoisotopic Mass>  (100) 
145.09770

>  <Synonyms>  (100) 
4-hydroxy-L-lysine residue

>  <PubMed citation Links>  (100) 
24486019

>  <PubChem Database Links>  (100) 
SID: 85341166

>  <Rhea Database Links>  (100) 
RHEA:57156

$$$$

     RDKit          2D

  9  8  0  0  0  0  0  0  0  0999 V2000
    0.8661    0.1250    0.0000 C   0  0  0  0  0  0  0  0  0  0  0  0
    0.0000   -0.3750    0.0000 C   0  0  0  0  0  0  0  0  0  0  0  0
   -0.8661    0.1250    0.0000 C   0  0  0  0  0  0  0  0  0  0  0  0
   -0.8661    1.1250    0.0000 C   0  0  0  0  0  0  0  0  0  0  0  0
   -1.7320   -0.3750    0.0000 C   0  0  0  0  0  0  0  0  0  0  0  0
    0.0000   -1.3750    0.0000 N   0  0  0  0  0  0  0  0  0  0  0  0
    1.7320   -0.3750    0.0000 O   0  0  0  0  0  0  0  0  0  0  0  0
    0.8661    1.1250    0.0000 O   0  0  0  0  0  0  0  0  0  0  0  0
   -2.5981    0.1250    0.0000 O   0  0  0  0  0  0  0  0  0  0  0  0
  1  8  2  0
  7  1  1  0
  2  1  1  0
  2  6  1  6
  3  2  1  0
  4  3  1  0
  3  5  1  0
  5  9  1  0
V    7 *
M  END
>  <ChEBI ID>  (101) 
CHEBI:141792

>  <ChEBI Name>  (101) 
4-hydroxy-D-valine residue

>  <Star>  (101) 
3

>  <Definition>  (101) 
A D-valine residue that is substituted by a hydroxy group at position 4.

>  <SMILES>  (101) 
C(=O)(*)[C@H](N*)C(C)CO

>  <Formulae>  (101) 
C5H9NO2

>  <Charge>  (101) 
0

>  <Mass>  (101) 
115.131

>  <Monoisotopic Mass>  (101) 
115.06333

>  <Synonyms>  (101) 
4-hydroxy-D-valine residue
D-Hyv residue
D-gamma-hydroxyvaline residue

>  <PubMed citation Links>  (101) 
15853325

>  <RESID Database Links>  (101) 
AA0388

>  <PubChem Database Links>  (101) 
SID: 85341461

>  <Last Modified>  (101) 
11 Oct 2018

$$$$

     RDKit          2D

  9  8  0  0  0  0  0  0  0  0999 V2000
    0.8661    0.1250    0.0000 C   0  0  0  0  0  0  0  0  0  0  0  0
    0.0000   -0.3750    0.0000 C   0  0  0  0  0  0  0  0  0  0  0  0
   -0.8661    0.1250    0.0000 C   0  0  0  0  0  0  0  0  0  0  0  0
   -0.8661    1.1250    0.0000 C   0  0  0  0  0  0  0  0  0  0  0  0
   -1.7320   -0.3750    0.0000 C   0  0  0  0  0  0  0  0  0  0  0  0
    0.0000   -1.3750    0.0000 N   0  0  0  0  0  0  0  0  0  0  0  0
    1.7320   -0.3750    0.0000 O   0  0  0  0  0  0  0  0  0  0  0  0
    0.8661    1.1250    0.0000 O   0  0  0  0  0  0  0  0  0  0  0  0
   -1.7321    0.6250    0.0000 O   0  0  0  0  0  0  0  0  0  0  0  0
  1  8  2  0
  7  1  1  0
  2  1  1  0
  2  6  1  1
  3  2  1  0
  4  3  1  0
  3  5  1  0
  3  9  1  0
V    7 *
M  END
>  <ChEBI ID>  (102) 
CHEBI:141793

>  <ChEBI Name>  (102) 
3-hydroxy-L-valine residue

>  <Star>  (102) 
3

>  <Definition>  (102) 
An L-valine residue that is substituted by a hydroxy group at position 3.

>  <SMILES>  (102) 
C(=O)(*)[C@@H](N*)C(C)(C)O

>  <Formulae>  (102) 
C5H9NO2

>  <Charge>  (102) 
0

>  <Mass>  (102) 
115.131

>  <Monoisotopic Mass>  (102) 
115.06333

>  <Synonyms>  (102) 
3-OH-Val residue
3-hydroxy-L-valine residue
3-hydroxyvaline residue

>  <PubMed citation Links>  (102) 
7328054

>  <RESID Database Links>  (102) 
AA0463

>  <PubChem Database Links>  (102) 
SID: 85341462

>  <Last Modified>  (102) 
11 Oct 2018

$$$$

     RDKit          2D

 16 17  0  0  0  0  0  0  0  0999 V2000
    0.0039   -0.3182    0.0000 C   0  0  0  0  0  0  0  0  0  0  0  0
   -0.1006   -1.3127    0.0000 C   0  0  0  0  0  0  0  0  0  0  0  0
   -1.0788   -1.5206    0.0000 N   0  0  0  0  0  0  0  0  0  0  0  0
   -1.5788   -0.6547    0.0000 C   0  0  0  0  0  0  0  0  0  0  0  0
   -0.9097    0.0885    0.0000 C   0  0  0  0  0  0  0  0  0  0  0  0
   -1.2187    1.0395    0.0000 C   0  0  0  0  0  0  0  0  0  0  0  0
   -2.5570   -0.4467    0.0000 C   0  0  0  0  0  0  0  0  0  0  0  0
   -2.8659    0.5044    0.0000 C   0  0  0  0  0  0  0  0  0  0  0  0
   -2.1968    1.2475    0.0000 C   0  0  0  0  0  0  0  0  0  0  0  0
    2.6019    1.1818    0.0000 O   0  0  0  0  0  0  0  0  0  0  0  0
    2.6019    0.1818    0.0000 C   0  0  0  0  0  0  0  0  0  0  0  0
    1.7359   -0.3182    0.0000 C   0  0  0  0  0  0  0  0  0  0  0  0
    0.8699    0.1818    0.0000 C   0  0  0  0  0  0  0  0  0  0  0  0
    1.7359   -1.3182    0.0000 N   0  0  0  0  0  0  0  0  0  0  0  0
    3.4680   -0.3182    0.0000 O   0  0  0  0  0  0  0  0  0  0  0  0
    0.8700    1.1818    0.0000 O   0  0  0  0  0  0  0  0  0  0  0  0
  1  2  2  0
  1  5  1  0
  2  3  1  0
  3  4  1  0
  4  5  2  0
  4  7  1  0
  5  6  1  0
  6  9  2  0
  7  8  2  0
  8  9  1  0
 11 10  2  0
 15 11  1  0
 12 11  1  0
 12 14  1  1
 13 12  1  0
  1 13  1  0
 13 16  1  0
V   15 *
M  END
>  <ChEBI ID>  (103) 
CHEBI:141794

>  <ChEBI Name>  (103) 
3-hydroxy-L-tryptophan residue

>  <Star>  (103) 
3

>  <Definition>  (103) 
An L-tryptophan residue that is substituted by a hydroxy group at position 3.

>  <SMILES>  (103) 
C1(=CNC2=C1C=CC=C2)C([C@@H](C(=O)*)N*)O

>  <Formulae>  (103) 
C11H10N2O2

>  <Charge>  (103) 
0

>  <Mass>  (103) 
202.210

>  <Monoisotopic Mass>  (103) 
202.07423

>  <Synonyms>  (103) 
3-OH-Trp residue
3-hydroxy-L-tryptophan residue
3-hydroxytryptophan residue
beta-hydroxy-L-tryptophan residue

>  <PubMed citation Links>  (103) 
10024453
11457355

>  <RESID Database Links>  (103) 
AA0322

>  <PubChem Database Links>  (103) 
SID: 85341463

>  <Last Modified>  (103) 
08 Oct 2018

$$$$

     RDKit          2D

 10 10  0  0  0  0  0  0  0  0999 V2000
    2.0159    0.4353    0.0000 O   0  0  0  0  0  0  0  0  0  0  0  0
    1.2605   -0.2200    0.0000 C   0  0  0  0  0  0  0  0  0  0  0  0
    1.4503   -1.2018    0.0000 O   0  0  0  0  0  0  0  0  0  0  0  0
    0.3153    0.1064    0.0000 C   0  0  0  0  0  0  0  0  0  0  0  0
    0.0239    1.0630    0.0000 C   0  0  0  0  0  0  0  0  0  0  0  0
   -0.9760    1.0815    0.0000 C   0  0  0  0  0  0  0  0  0  0  0  0
   -1.3024    0.1362    0.0000 C   0  0  0  0  0  0  0  0  0  0  0  0
   -0.5044   -0.4663    0.0000 N   0  0  0  0  0  0  0  0  0  0  0  0
    0.6265    1.8611    0.0000 O   0  0  0  0  0  0  0  0  0  0  0  0
   -1.5488    1.9011    0.0000 O   0  0  0  0  0  0  0  0  0  0  0  0
  7  6  1  0
  2  1  2  0
  3  2  1  0
  4  2  1  1
  6  5  1  0
  5  4  1  0
  4  8  1  0
  7  8  1  0
  5  9  1  6
  6 10  1  6
V    3 *
M  END
>  <ChEBI ID>  (104) 
CHEBI:141803

>  <ChEBI Name>  (104) 
(3R,4S)-3,4-dihydroxy-L-proline residue

>  <Star>  (104) 
2

>  <Definition>  (104) 
An L-proline residue that is substituted by hydroxy groups at positions 3 and 4 (the 3R,4S diastereoisomer).

>  <SMILES>  (104) 
O=C(*)[C@@H]1[C@H]([C@H](CN1*)O)O

>  <Formulae>  (104) 
C5H7NO3

>  <Charge>  (104) 
0

>  <Mass>  (104) 
129.114

>  <Monoisotopic Mass>  (104) 
129.04259

>  <Synonyms>  (104) 
(3R,4S)-3,4-dihydroxy-L-proline residue
(3R,4S)-3,4-dihydroxy-L-prolyl

>  <RESID Database Links>  (104) 
AA0282

>  <PubChem Database Links>  (104) 
SID: 85341472

$$$$

     RDKit          2D

 10 10  0  0  0  0  0  0  0  0999 V2000
    2.0159    0.4353    0.0000 O   0  0  0  0  0  0  0  0  0  0  0  0
    1.2605   -0.2200    0.0000 C   0  0  0  0  0  0  0  0  0  0  0  0
    1.4503   -1.2018    0.0000 O   0  0  0  0  0  0  0  0  0  0  0  0
    0.3153    0.1064    0.0000 C   0  0  0  0  0  0  0  0  0  0  0  0
    0.0239    1.0630    0.0000 C   0  0  0  0  0  0  0  0  0  0  0  0
   -0.9760    1.0815    0.0000 C   0  0  0  0  0  0  0  0  0  0  0  0
   -1.3024    0.1362    0.0000 C   0  0  0  0  0  0  0  0  0  0  0  0
   -0.5044   -0.4663    0.0000 N   0  0  0  0  0  0  0  0  0  0  0  0
    0.6265    1.8611    0.0000 O   0  0  0  0  0  0  0  0  0  0  0  0
   -1.5488    1.9011    0.0000 O   0  0  0  0  0  0  0  0  0  0  0  0
  7  6  1  0
  2  1  2  0
  3  2  1  0
  4  2  1  1
  6  5  1  0
  5  4  1  0
  4  8  1  0
  7  8  1  0
  5  9  1  6
  6 10  1  1
V    3 *
M  END
>  <ChEBI ID>  (105) 
CHEBI:141805

>  <ChEBI Name>  (105) 
(3R,4R)-3,4-dihydroxy-L-proline residue

>  <Star>  (105) 
3

>  <Definition>  (105) 
A 3,4-dihydroxy-L-proline residue which has 3R,4R configuration.

>  <SMILES>  (105) 
O=C(*)[C@@H]1[C@H]([C@@H](CN1*)O)O

>  <Formulae>  (105) 
C5H7NO3

>  <Charge>  (105) 
0

>  <Mass>  (105) 
129.114

>  <Monoisotopic Mass>  (105) 
129.04259

>  <Synonyms>  (105) 
(2S,3R,4R)-3,4-dihydroxyproline residue
(3R,4R)-3,4-dihydroxy-L-proline residue
(3R,4R)-3,4-dihydroxy-L-prolyl

>  <PubMed citation Links>  (105) 
16592813

>  <RESID Database Links>  (105) 
AA0479

>  <PubChem Database Links>  (105) 
SID: 85341474

>  <Last Modified>  (105) 
07 Nov 2019

$$$$

     RDKit          2D

  9  9  0  0  0  0  0  0  0  0999 V2000
    2.0159    0.4353    0.0000 O   0  0  0  0  0  0  0  0  0  0  0  0
    1.2605   -0.2200    0.0000 C   0  0  0  0  0  0  0  0  0  0  0  0
    1.4503   -1.2018    0.0000 O   0  0  0  0  0  0  0  0  0  0  0  0
    0.3153    0.1064    0.0000 C   0  0  0  0  0  0  0  0  0  0  0  0
    0.0239    1.0630    0.0000 C   0  0  0  0  0  0  0  0  0  0  0  0
   -0.9760    1.0815    0.0000 C   0  0  0  0  0  0  0  0  0  0  0  0
   -1.3024    0.1362    0.0000 C   0  0  0  0  0  0  0  0  0  0  0  0
   -0.5044   -0.4663    0.0000 N   0  0  0  0  0  0  0  0  0  0  0  0
    0.8153    0.9724    0.0000 O   0  0  0  0  0  0  0  0  0  0  0  0
  7  6  1  0
  2  1  2  0
  3  2  1  0
  4  2  1  0
  6  5  1  0
  5  4  1  0
  4  8  1  0
  7  8  1  0
  4  9  1  6
V    3 *
M  END
>  <ChEBI ID>  (106) 
CHEBI:141809

>  <ChEBI Name>  (106) 
2-hydroxy-L-proline residue

>  <Star>  (106) 
3

>  <Definition>  (106) 
An L-proline residue that is substituted by a hydroxy group at position 2.

>  <SMILES>  (106) 
O=C(*)[C@@]1(CCCN1*)O

>  <Formulae>  (106) 
C5H7NO2

>  <Charge>  (106) 
0

>  <Mass>  (106) 
113.115

>  <Monoisotopic Mass>  (106) 
113.04768

>  <Synonyms>  (106) 
(2R)-2-hydroxyproline residue
2-hydroxy-L-proline residue
2-hydroxy-L-prolyl

>  <PDBeChem Database Links>  (106) 
PXU

>  <PubMed citation Links>  (106) 
23385463

>  <RESID Database Links>  (106) 
AA0602

>  <PubChem Database Links>  (106) 
SID: 85341478

>  <Last Modified>  (106) 
01 Jul 2019

$$$$

     RDKit          2D

 15 15  0  0  0  0  0  0  0  0999 V2000
   13.9094   -6.5568    0.0000 C   0  0  0  0  0  0  0  0  0  0  0  0
   13.9094   -5.5568    0.0000 O   0  0  0  0  0  0  0  0  0  0  0  0
   13.0435   -7.0568    0.0000 C   0  0  0  0  0  0  0  0  0  0  0  0
   13.0435   -8.0568    0.0000 N   0  0  0  0  0  0  0  0  0  0  0  0
   12.1774   -6.5569    0.0000 C   0  0  0  0  0  0  0  0  0  0  0  0
   11.3115   -7.0569    0.0000 C   0  0  0  0  0  0  0  0  0  0  0  0
   11.3115   -8.0569    0.0000 C   0  0  0  0  0  0  0  0  0  0  0  0
   10.4454   -6.5569    0.0000 C   0  0  0  0  0  0  0  0  0  0  0  0
    9.5793   -7.0569    0.0000 C   0  0  0  0  0  0  0  0  0  0  0  0
   10.4454   -8.5569    0.0000 C   0  0  0  0  0  0  0  0  0  0  0  0
    9.5794   -8.0569    0.0000 C   0  0  0  0  0  0  0  0  0  0  0  0
   14.7755   -7.0568    0.0000 O   0  0  0  0  0  0  0  0  0  0  0  0
    8.7133   -6.5569    0.0000 O   0  0  0  0  0  0  0  0  0  0  0  0
    8.7134   -8.5569    0.0000 O   0  0  0  0  0  0  0  0  0  0  0  0
   10.4454   -9.5569    0.0000 O   0  0  0  0  0  0  0  0  0  0  0  0
  1 12  1  0
  2  1  2  0
  3  1  1  0
  3  4  1  1
  3  5  1  0
  6  5  1  0
  7  6  2  0
  8  6  1  0
  9  8  2  0
 10  7  1  0
 11  9  1  0
 10 11  2  0
  9 13  1  0
 11 14  1  0
 10 15  1  0
V   12 *
M  END
>  <ChEBI ID>  (107) 
CHEBI:141811

>  <ChEBI Name>  (107) 
3',4',5'-trihydroxy-L-phenylalanine residue

>  <Star>  (107) 
2

>  <Definition>  (107) 
An L-phenylalanine residue that is substituted by hydroxy groups at positions 3', 4' and 5'.

>  <SMILES>  (107) 
C(*)(=O)[C@@H](N*)CC1=CC(=C(C(=C1)O)O)O

>  <Formulae>  (107) 
C9H9NO4

>  <Charge>  (107) 
0

>  <Mass>  (107) 
195.172

>  <Monoisotopic Mass>  (107) 
195.05316

>  <Synonyms>  (107) 
(2S)-3',4',5'-trihydroxyphenylalanine residue
3',4',5'-trihydroxy-L-phenylalanine residue
L-3,4,5-TOPA

>  <PubMed citation Links>  (107) 
8554314
9434739

>  <RESID Database Links>  (107) 
AA0263

>  <PubChem Database Links>  (107) 
SID: 85341480

$$$$

     RDKit          2D

 14 14  0  0  0  0  0  0  0  0999 V2000
   13.9094   -6.5568    0.0000 C   0  0  0  0  0  0  0  0  0  0  0  0
   13.9094   -5.5568    0.0000 O   0  0  0  0  0  0  0  0  0  0  0  0
   13.0435   -7.0568    0.0000 C   0  0  0  0  0  0  0  0  0  0  0  0
   13.0435   -8.0568    0.0000 N   0  0  0  0  0  0  0  0  0  0  0  0
   12.1774   -6.5569    0.0000 C   0  0  0  0  0  0  0  0  0  0  0  0
   11.3115   -7.0569    0.0000 C   0  0  0  0  0  0  0  0  0  0  0  0
   11.3115   -8.0569    0.0000 C   0  0  0  0  0  0  0  0  0  0  0  0
   10.4454   -6.5569    0.0000 C   0  0  0  0  0  0  0  0  0  0  0  0
    9.5793   -7.0569    0.0000 C   0  0  0  0  0  0  0  0  0  0  0  0
   10.4454   -8.5569    0.0000 C   0  0  0  0  0  0  0  0  0  0  0  0
    9.5794   -8.0569    0.0000 C   0  0  0  0  0  0  0  0  0  0  0  0
   14.7755   -7.0568    0.0000 O   0  0  0  0  0  0  0  0  0  0  0  0
    8.7133   -6.5569    0.0000 O   0  0  0  0  0  0  0  0  0  0  0  0
    8.7134   -8.5569    0.0000 O   0  0  0  0  0  0  0  0  0  0  0  0
  1 12  1  0
  2  1  2  0
  3  1  1  0
  3  4  1  1
  3  5  1  0
  6  5  1  0
  7  6  2  0
  8  6  1  0
  9  8  2  0
 10  7  1  0
 11  9  1  0
 10 11  2  0
  9 13  1  0
 11 14  1  0
V   12 *
M  END
>  <ChEBI ID>  (108) 
CHEBI:141815

>  <ChEBI Name>  (108) 
3',4'-dihydroxy-L-phenylalanine residue

>  <Star>  (108) 
2

>  <Definition>  (108) 
An L-phenylalanine residue that is substituted by hydroxy groups at positions 3' and 4'.

>  <SMILES>  (108) 
C(*)(=O)[C@@H](N*)CC1=CC=C(C(=C1)O)O

>  <Formulae>  (108) 
C9H9NO3

>  <Charge>  (108) 
0

>  <Mass>  (108) 
179.173

>  <Monoisotopic Mass>  (108) 
179.05824

>  <Synonyms>  (108) 
(2S)-3',4'-dihydroxyphenylalanine residue
3',4'-dihydroxy-L-phenylalanine residue
3'-hydroxy-L-tyrosine residue
L-DOPA residue

>  <PubMed citation Links>  (108) 
3734192
1610822
1903612

>  <RESID Database Links>  (108) 
AA0146

>  <PubChem Database Links>  (108) 
SID: 85341484

$$$$

     RDKit          2D

 12 11  0  0  0  0  0  0  0  0999 V2000
   12.3837  -24.1313    0.0000 C   0  0  0  0  0  0  0  0  0  0  0  0
   13.2485  -23.6298    0.0000 C   0  0  0  0  0  0  0  0  0  0  0  0
   11.5192  -23.6298    0.0000 C   0  0  0  0  0  0  0  0  0  0  0  0
   12.3837  -25.1295    0.0000 N   0  0  0  0  0  0  0  0  0  0  0  0
   14.1175  -24.1313    0.0000 O   0  0  0  0  0  0  0  0  0  0  0  0
   13.2485  -22.6314    0.0000 O   0  0  0  0  0  0  0  0  0  0  0  0
   10.6543  -24.1313    0.0000 C   0  0  0  0  0  0  0  0  0  0  0  0
    9.7896  -23.6298    0.0000 C   0  0  0  0  0  0  0  0  0  0  0  0
    8.9206  -24.1313    0.0000 C   0  0  0  0  0  0  0  0  0  0  0  0
    8.0558  -23.6298    0.0000 N   0  0  0  0  0  0  0  0  0  0  0  0
   10.6542  -25.1309    0.0000 O   0  0  0  0  0  0  0  0  0  0  0  0
    9.7907  -22.6302    0.0000 O   0  0  0  0  0  0  0  0  0  0  0  0
  1  2  1  0
  1  3  1  0
  1  4  1  1
  2  5  1  0
  2  6  2  0
  3  7  1  0
  7  8  1  0
  8  9  1  0
  9 10  1  0
  7 11  1  0
  8 12  1  0
V    5 *
M  END
>  <ChEBI ID>  (109) 
CHEBI:141816

>  <ChEBI Name>  (109) 
4,5-dihydroxy-L-lysine residue

>  <Star>  (109) 
2

>  <Definition>  (109) 
A nL-lysine residue that is substituted by hydroxy groups at positions 4 and 5; major microspecies at pH 7.3.

>  <SMILES>  (109) 
[C@@H](C(*)=O)(CC(C(C[NH3+])O)O)N*

>  <Formulae>  (109) 
C6H13N2O3

>  <Charge>  (109) 
+1

>  <Mass>  (109) 
161.179

>  <Monoisotopic Mass>  (109) 
161.09262

>  <Synonyms>  (109) 
(2S)-4,5-dihydroxylysine residue
4,5-dihydroxy-L-lysine residue

>  <PubMed citation Links>  (109) 
10978343

>  <RESID Database Links>  (109) 
AA0370

>  <PubChem Database Links>  (109) 
SID: 85341485

$$$$

     RDKit          2D

 11 10  0  0  0  0  0  0  0  0999 V2000
   12.3837  -24.1313    0.0000 C   0  0  0  0  0  0  0  0  0  0  0  0
   13.2485  -23.6298    0.0000 C   0  0  0  0  0  0  0  0  0  0  0  0
   11.5192  -23.6298    0.0000 C   0  0  0  0  0  0  0  0  0  0  0  0
   12.3837  -25.1295    0.0000 N   0  0  0  0  0  0  0  0  0  0  0  0
   14.1175  -24.1313    0.0000 O   0  0  0  0  0  0  0  0  0  0  0  0
   13.2485  -22.6314    0.0000 O   0  0  0  0  0  0  0  0  0  0  0  0
   10.6543  -24.1313    0.0000 C   0  0  0  0  0  0  0  0  0  0  0  0
    9.7896  -23.6298    0.0000 C   0  0  0  0  0  0  0  0  0  0  0  0
    8.9206  -24.1313    0.0000 C   0  0  0  0  0  0  0  0  0  0  0  0
    8.0558  -23.6298    0.0000 N   0  0  0  0  0  0  0  0  0  0  0  0
    9.7907  -22.6302    0.0000 O   0  0  0  0  0  0  0  0  0  0  0  0
  1  2  1  0
  1  3  1  0
  1  4  1  1
  2  5  1  0
  2  6  2  0
  3  7  1  0
  7  8  1  0
  8  9  1  0
  9 10  1  0
  8 11  1  0
V    5 *
M  END
>  <ChEBI ID>  (110) 
CHEBI:141817

>  <ChEBI Name>  (110) 
5-hydroxy-L-lysinium residue

>  <Star>  (110) 
2

>  <Definition>  (110) 
An L-lysinium residue that is substituted by an hydroxy group at position 5; major microspecies at pH 7.3.

>  <SMILES>  (110) 
[C@@H](C(*)=O)(CCC(C[NH3+])O)N*

>  <Formulae>  (110) 
C6H13N2O2

>  <Charge>  (110) 
+1

>  <Mass>  (110) 
145.180

>  <Monoisotopic Mass>  (110) 
145.09770

>  <Synonyms>  (110) 
(2S)-5-hydroxylysine residue
5-hydroxy-L-lysine residue

>  <PubChem Database Links>  (110) 
SID: 85341486

$$$$

     RDKit          2D

 12 11  0  0  0  0  0  0  0  0999 V2000
    1.1159    0.5840    0.0000 C   0  0  0  0  0  0  0  0  0  0  0  0
    1.9819    0.0840    0.0000 O   0  0  0  0  0  0  0  0  0  0  0  0
    0.2498    0.0840    0.0000 C   0  0  0  0  0  0  0  0  0  0  0  0
   -0.6161    0.5840    0.0000 C   0  0  0  0  0  0  0  0  0  0  0  0
   -1.4822    0.0840    0.0000 C   0  0  0  0  0  0  0  0  0  0  0  0
   -1.4822   -0.9160    0.0000 C   0  0  0  0  0  0  0  0  0  0  0  0
   -2.3482    0.5840    0.0000 C   0  0  0  0  0  0  0  0  0  0  0  0
    0.2498   -0.9160    0.0000 N   0  0  0  0  0  0  0  0  0  0  0  0
    1.1159    1.5840    0.0000 O   0  0  0  0  0  0  0  0  0  0  0  0
   -3.2143    0.0840    0.0000 O   0  0  0  0  0  0  0  0  0  0  0  0
   -2.3482   -1.4160    0.0000 O   0  0  0  0  0  0  0  0  0  0  0  0
   -1.4822    1.0840    0.0000 O   0  0  0  0  0  0  0  0  0  0  0  0
  1  9  2  0
  2  1  1  0
  3  1  1  0
  3  8  1  1
  3  4  1  0
  5  4  1  0
  6  5  1  0
  7  5  1  0
  7 10  1  0
  6 11  1  0
  5 12  1  0
V    2 *
M  END
>  <ChEBI ID>  (111) 
CHEBI:141818

>  <ChEBI Name>  (111) 
4,5,5'-trihydroxy-L-leucine residue

>  <Star>  (111) 
2

>  <Definition>  (111) 
An L-leucine residue that is substituted by hydroxy groups at positions 4, 5 and 5'.

>  <SMILES>  (111) 
C(=O)(*)[C@@H](N*)CC(CO)(CO)O

>  <Formulae>  (111) 
C6H11NO4

>  <Charge>  (111) 
0

>  <Mass>  (111) 
161.156

>  <Monoisotopic Mass>  (111) 
161.06881

>  <Synonyms>  (111) 
(2S)-4,5,5'-trihydroxyleucine residue
4,5,5'-trihydroxy-L-leucine residue

>  <PubMed citation Links>  (111) 
6893271

>  <RESID Database Links>  (111) 
AA0480

>  <PubChem Database Links>  (111) 
SID: 85341487

$$$$

     RDKit          2D

 11 10  0  0  0  0  0  0  0  0999 V2000
    1.1159    0.5840    0.0000 C   0  0  0  0  0  0  0  0  0  0  0  0
    1.9819    0.0840    0.0000 O   0  0  0  0  0  0  0  0  0  0  0  0
    0.2498    0.0840    0.0000 C   0  0  0  0  0  0  0  0  0  0  0  0
   -0.6161    0.5840    0.0000 C   0  0  0  0  0  0  0  0  0  0  0  0
   -1.4822    0.0840    0.0000 C   0  0  0  0  0  0  0  0  0  0  0  0
   -1.4822   -0.9160    0.0000 C   0  0  0  0  0  0  0  0  0  0  0  0
   -2.3482    0.5840    0.0000 C   0  0  0  0  0  0  0  0  0  0  0  0
    0.2498   -0.9160    0.0000 N   0  0  0  0  0  0  0  0  0  0  0  0
    1.1159    1.5840    0.0000 O   0  0  0  0  0  0  0  0  0  0  0  0
   -3.2143    0.0840    0.0000 O   0  0  0  0  0  0  0  0  0  0  0  0
   -1.4822    1.0840    0.0000 O   0  0  0  0  0  0  0  0  0  0  0  0
  1  9  2  0
  2  1  1  0
  3  1  1  0
  3  8  1  1
  3  4  1  0
  5  4  1  0
  5  6  1  6
  7  5  1  0
  7 10  1  0
  5 11  1  0
V    2 *
M  END
>  <ChEBI ID>  (112) 
CHEBI:141819

>  <ChEBI Name>  (112) 
(4S)-4,5-dihydroxy-L-leucine residue

>  <Star>  (112) 
2

>  <Definition>  (112) 
An L-leucine residue that is substituted by hydroxy groups at positions 4 and 5 (the 4S stereoisomer).

>  <SMILES>  (112) 
C(=O)(*)[C@@H](N*)C[C@@](C)(CO)O

>  <Formulae>  (112) 
C6H11NO3

>  <Charge>  (112) 
0

>  <Mass>  (112) 
145.157

>  <Monoisotopic Mass>  (112) 
145.07389

>  <Synonyms>  (112) 
(2S,4S)-4,5-dihydroxyleucine residue
(4S)-4,5-dihydroxy-L-leucine residue

>  <PubMed citation Links>  (112) 
3718926

>  <RESID Database Links>  (112) 
AA0446

>  <PubChem Database Links>  (112) 
SID: 85341488

$$$$

     RDKit          2D

 11 10  0  0  1  0  0  0  0  0999 V2000
   11.1461   -5.6675    0.0000 C   0  0  0  0  0  0  0  0  0  0  0  0
   12.0120   -6.1675    0.0000 O   0  0  0  0  0  0  0  0  0  0  0  0
   10.2800   -6.1675    0.0000 C   0  0  0  0  0  0  0  0  0  0  0  0
    9.4141   -5.6675    0.0000 C   0  0  0  0  0  0  0  0  0  0  0  0
    8.5482   -6.1675    0.0000 C   0  0  0  0  0  0  0  0  0  0  0  0
    7.6822   -5.6675    0.0000 C   0  0  0  0  0  0  0  0  0  0  0  0
   10.2800   -7.1675    0.0000 N   0  0  0  0  0  0  0  0  0  0  0  0
   11.1461   -4.6675    0.0000 O   0  0  0  0  0  0  0  0  0  0  0  0
    6.8160   -6.1675    0.0000 O   0  0  0  0  0  0  0  0  0  0  0  0
    9.0480   -7.0336    0.0000 O   0  0  0  0  0  0  0  0  0  0  0  0
    8.0481   -7.0336    0.0000 C   0  0  0  0  0  0  0  0  0  0  0  0
  1  8  2  0
  2  1  1  0
  3  1  1  0
  3  7  1  1
  3  4  1  0
  5  4  1  0
  6  5  1  0
  6  9  1  0
  5 10  1  0
  5 11  1  6
V    2 *
M  END
>  <ChEBI ID>  (113) 
CHEBI:141823

>  <ChEBI Name>  (113) 
(4R)-4,5-dihydroxy-L-leucine residue

>  <Star>  (113) 
2

>  <Definition>  (113) 
An L-leucine residue that is substituted by hydroxy groups at positions 4 and 5 (the 4R stereoisomer).

>  <SMILES>  (113) 
C(=O)(*)[C@@H](N*)C[C@](CO)(O)C

>  <Formulae>  (113) 
C6H11NO3

>  <Charge>  (113) 
0

>  <Mass>  (113) 
145.157

>  <Monoisotopic Mass>  (113) 
145.07389

>  <Synonyms>  (113) 
(2S,4R)-4,5-dihydroxyleucine residue
(4R)-4,5-dihydroxy-L-leucine residue

>  <PubMed citation Links>  (113) 
6010785
6893271

>  <RESID Database Links>  (113) 
AA0445

>  <PubChem Database Links>  (113) 
SID: 85341492

>  <Last Modified>  (113) 
25 Sep 2018

$$$$

     RDKit          2D

 10  9  0  0  0  0  0  0  0  0999 V2000
    1.1159    0.5840    0.0000 C   0  0  0  0  0  0  0  0  0  0  0  0
    1.9819    0.0840    0.0000 O   0  0  0  0  0  0  0  0  0  0  0  0
    0.2498    0.0840    0.0000 C   0  0  0  0  0  0  0  0  0  0  0  0
   -0.6161    0.5840    0.0000 C   0  0  0  0  0  0  0  0  0  0  0  0
   -1.4822    0.0840    0.0000 C   0  0  0  0  0  0  0  0  0  0  0  0
   -1.4822   -0.9160    0.0000 C   0  0  0  0  0  0  0  0  0  0  0  0
   -2.3482    0.5840    0.0000 C   0  0  0  0  0  0  0  0  0  0  0  0
    0.2498   -0.9160    0.0000 N   0  0  0  0  0  0  0  0  0  0  0  0
    1.1159    1.5840    0.0000 O   0  0  0  0  0  0  0  0  0  0  0  0
   -3.2143    0.0840    0.0000 O   0  0  0  0  0  0  0  0  0  0  0  0
  1  9  2  0
  2  1  1  0
  3  1  1  0
  3  8  1  1
  3  4  1  0
  5  4  1  0
  5  6  1  1
  7  5  1  0
  7 10  1  0
V    2 *
M  END
>  <ChEBI ID>  (114) 
CHEBI:141824

>  <ChEBI Name>  (114) 
(4R)-5-hydroxy-L-leucine residue

>  <Star>  (114) 
2

>  <Definition>  (114) 
An L-leucine residue that is substituted by an hydroxy group at position 5 (the 4R stereoisomer).

>  <SMILES>  (114) 
C(=O)(*)[C@@H](N*)C[C@@H](C)CO

>  <Formulae>  (114) 
C6H11NO2

>  <Charge>  (114) 
0

>  <Mass>  (114) 
129.157

>  <Monoisotopic Mass>  (114) 
129.07898

>  <Synonyms>  (114) 
(2S,4R)-5-hydroxyleucine residue
(4R)-5-hydroxy-L-leucine residue

>  <PubMed citation Links>  (114) 
7690768
9164839
16858410

>  <RESID Database Links>  (114) 
AA0443

>  <PubChem Database Links>  (114) 
SID: 85341493

$$$$

     RDKit          2D

 10  9  0  0  1  0  0  0  0  0999 V2000
   10.9658  -20.6441    0.0000 C   0  0  0  0  0  0  0  0  0  0  0  0
   11.8355  -21.1464    0.0000 O   0  0  0  0  0  0  0  0  0  0  0  0
   10.0957  -21.1464    0.0000 C   0  0  0  0  0  0  0  0  0  0  0  0
    9.2260  -20.6441    0.0000 C   0  0  0  0  0  0  0  0  0  0  0  0
    8.3560  -21.1464    0.0000 C   0  0  0  0  0  0  0  0  0  0  0  0
   10.0957  -22.1508    0.0000 N   0  0  0  0  0  0  0  0  0  0  0  0
   10.9658  -19.6397    0.0000 O   0  0  0  0  0  0  0  0  0  0  0  0
    8.3456  -22.1143    0.0000 C   0  0  0  0  0  0  0  0  0  0  0  0
    7.4944  -20.6240    0.0000 C   0  0  0  0  0  0  0  0  0  0  0  0
    7.4586  -21.5724    0.0000 O   0  0  0  0  0  0  0  0  0  0  0  0
  1  7  2  0
  2  1  1  0
  3  1  1  0
  3  6  1  1
  3  4  1  0
  5  4  1  0
  8  5  1  0
  9  5  1  0
  5 10  1  0
V    2 *
M  END
>  <ChEBI ID>  (115) 
CHEBI:141825

>  <ChEBI Name>  (115) 
4-hydroxy-L-leucine residue

>  <Star>  (115) 
3

>  <Definition>  (115) 
An L-alpha-amino acid residue derived from 4-hydroxy-L-leucine.

>  <SMILES>  (115) 
C(=O)(*)[C@@H](N*)CC(C)(C)O

>  <Formulae>  (115) 
C6H11NO2

>  <Charge>  (115) 
0

>  <Mass>  (115) 
129.157

>  <Monoisotopic Mass>  (115) 
129.07898

>  <Synonyms>  (115) 
(2S)-4-hydroxyleucine residue
(2S)-gamma-hydroxyleucine residue
4-hydroxy-L-leucine residue

>  <PubMed citation Links>  (115) 
363352
9164839

>  <RESID Database Links>  (115) 
AA0442

>  <PubChem Database Links>  (115) 
SID: 85341494

>  <Last Modified>  (115) 
02 Jul 2019

$$$$

     RDKit          2D

 11 10  0  0  0  0  0  0  0  0999 V2000
    1.0099    0.3395    0.0000 C   0  0  0  0  0  0  0  0  0  0  0  0
    1.8760   -0.1605    0.0000 O   0  0  0  0  0  0  0  0  0  0  0  0
    0.1440   -0.1605    0.0000 C   0  0  0  0  0  0  0  0  0  0  0  0
   -0.7221    0.3395    0.0000 C   0  0  0  0  0  0  0  0  0  0  0  0
   -0.7221    1.3395    0.0000 C   0  0  0  0  0  0  0  0  0  0  0  0
   -1.5881   -0.1605    0.0000 C   0  0  0  0  0  0  0  0  0  0  0  0
   -2.4542    0.3395    0.0000 C   0  0  0  0  0  0  0  0  0  0  0  0
    1.0099    1.3395    0.0000 O   0  0  0  0  0  0  0  0  0  0  0  0
    0.1440   -1.1605    0.0000 N   0  0  0  0  0  0  0  0  0  0  0  0
   -1.5881   -1.1605    0.0000 O   0  0  0  0  0  0  0  0  0  0  0  0
   -3.3202   -0.1605    0.0000 O   0  0  0  0  0  0  0  0  0  0  0  0
  1  8  2  0
  2  1  1  0
  3  1  1  0
  3  9  1  1
  4  3  1  0
  4  5  1  6
  6  4  1  0
  7  6  1  0
  6 10  1  1
  7 11  1  0
V    2 *
M  END
>  <ChEBI ID>  (116) 
CHEBI:141826

>  <ChEBI Name>  (116) 
(3R,4R)-4,5-dihydroxy-L-isoleucine residue

>  <Star>  (116) 
2

>  <Definition>  (116) 
An L-isoleucine residue that is substituted by hydroxy groups at positions 4 and 5 (the 3R,4R diastereoisomer).

>  <SMILES>  (116) 
C(=O)(*)[C@@H](N*)[C@@H](C)[C@H](CO)O

>  <Formulae>  (116) 
C6H11NO3

>  <Charge>  (116) 
0

>  <Mass>  (116) 
145.157

>  <Monoisotopic Mass>  (116) 
145.07389

>  <Synonyms>  (116) 
(2S,3R,4R)-4,5-dihydroxyisoleucine residue
(3R,4R)-4,5-dihydroxy-L-isoleucine residue

>  <PubMed citation Links>  (116) 
363352
11805306
18552824

>  <RESID Database Links>  (116) 
AA0449

>  <PubChem Database Links>  (116) 
SID: 85341495

$$$$

     RDKit          2D

 11 10  0  0  0  0  0  0  0  0999 V2000
    1.0006    0.3364    0.0000 C   0  0  0  0  0  0  0  0  0  0  0  0
    1.8587   -0.1590    0.0000 O   0  0  0  0  0  0  0  0  0  0  0  0
    0.1427   -0.1590    0.0000 C   0  0  0  0  0  0  0  0  0  0  0  0
   -0.7154    0.3364    0.0000 C   0  0  0  0  0  0  0  0  0  0  0  0
   -0.2554    1.3271    0.0000 C   0  0  0  0  0  0  0  0  0  0  0  0
   -1.5734   -0.1590    0.0000 C   0  0  0  0  0  0  0  0  0  0  0  0
   -2.4315    0.3364    0.0000 C   0  0  0  0  0  0  0  0  0  0  0  0
    1.0006    1.3271    0.0000 O   0  0  0  0  0  0  0  0  0  0  0  0
    0.1427   -1.1498    0.0000 N   0  0  0  0  0  0  0  0  0  0  0  0
   -1.5734   -1.1498    0.0000 O   0  0  0  0  0  0  0  0  0  0  0  0
   -1.2108    1.1944    0.0000 O   0  0  0  0  0  0  0  0  0  0  0  0
  1  8  2  0
  2  1  1  0
  3  1  1  0
  3  9  1  1
  4  3  1  0
  4  5  1  6
  6  4  1  0
  6  7  1  6
  6 10  1  0
  4 11  1  0
V    2 *
M  END
>  <ChEBI ID>  (117) 
CHEBI:141827

>  <ChEBI Name>  (117) 
(3S,4R)-3,4-dihydroxy-L-isoleucine residue

>  <Star>  (117) 
2

>  <Definition>  (117) 
An L-isoleucine residue that is substituted by hydroxy groups at positions 3 and 4 (the 3S,4R diastereoisomer).

>  <SMILES>  (117) 
C(=O)(*)[C@@H](N*)[C@@](C)([C@@H](C)O)O

>  <Formulae>  (117) 
C6H11NO3

>  <Charge>  (117) 
0

>  <Mass>  (117) 
145.157

>  <Monoisotopic Mass>  (117) 
145.07389

>  <Synonyms>  (117) 
(2S,3S,4R)-3,4-dihydroxyisoleucine residue
(3S,4R)-3,4-dihydroxy-L-isoleucine residue

>  <PubMed citation Links>  (117) 
11320328
19745839

>  <RESID Database Links>  (117) 
AA0447

>  <PubChem Database Links>  (117) 
SID: 85341496

$$$$

     RDKit          2D

 10  9  0  0  0  0  0  0  0  0999 V2000
   -0.4330    0.2501    0.0000 C   0  0  0  0  0  0  0  0  0  0  0  0
   -2.1651    0.2501    0.0000 N   0  0  0  0  0  0  0  0  0  0  0  0
   -1.2990   -0.2500    0.0000 C   0  0  0  0  0  0  0  0  0  0  0  0
   -1.2990   -1.2499    0.0000 O   0  0  0  0  0  0  0  0  0  0  0  0
    1.2990    0.2501    0.0000 C   0  0  0  0  0  0  0  0  0  0  0  0
    1.2990    1.2500    0.0000 O   0  0  0  0  0  0  0  0  0  0  0  0
    0.4330   -0.2501    0.0000 C   0  0  0  0  0  0  0  0  0  0  0  0
    0.4330   -1.2500    0.0000 N   0  0  0  0  0  0  0  0  0  0  0  0
    2.1649   -0.2501    0.0000 O   0  0  0  0  0  0  0  0  0  0  0  0
   -0.4328    1.2500    0.0000 O   0  0  0  0  0  0  0  0  0  0  0  0
  5  9  1  0
  7  5  1  0
  1  7  1  0
  3  1  1  0
  2  3  1  0
  3  4  2  0
  5  6  2  0
  7  8  1  1
  1 10  1  0
V    9 *
M  END
>  <ChEBI ID>  (118) 
CHEBI:141828

>  <ChEBI Name>  (118) 
3-hydroxy-L-asparagine residue

>  <Star>  (118) 
2

>  <Definition>  (118) 
An L-asparagine residue that is substituted by an hydroxy group at position.

>  <SMILES>  (118) 
C([C@@H](C(*)=O)N*)(C(N)=O)O

>  <Formulae>  (118) 
C4H6N2O3

>  <Charge>  (118) 
0

>  <Mass>  (118) 
130.102

>  <Monoisotopic Mass>  (118) 
130.03784

>  <Synonyms>  (118) 
(2S)-3-hydroxyasparagine residue

>  <PubChem Database Links>  (118) 
SID: 85341497

$$$$

     RDKit          2D

 14 13  0  0  0  0  0  0  0  0999 V2000
    2.4537    1.1667    0.0000 O   0  0  0  0  0  0  0  0  0  0  0  0
    2.4537    0.1667    0.0000 C   0  0  0  0  0  0  0  0  0  0  0  0
    3.3197   -0.3333    0.0000 O   0  0  0  0  0  0  0  0  0  0  0  0
    1.5878   -0.3333    0.0000 C   0  0  0  0  0  0  0  0  0  0  0  0
    0.7217    0.1667    0.0000 C   0  0  0  0  0  0  0  0  0  0  0  0
   -0.1444   -0.3333    0.0000 C   0  0  0  0  0  0  0  0  0  0  0  0
   -1.0103    0.1667    0.0000 C   0  0  0  0  0  0  0  0  0  0  0  0
   -1.8764   -0.3333    0.0000 N   0  0  0  0  0  0  0  0  0  0  0  0
   -2.7424    0.1667    0.0000 C   0  0  0  0  0  0  0  0  0  0  0  0
   -2.7424    1.1667    0.0000 N   0  0  0  0  0  0  0  0  0  0  0  0
   -3.6085   -0.3333    0.0000 N   0  0  0  0  0  0  0  0  0  0  0  0
    1.5878   -1.3333    0.0000 N   0  0  0  0  0  0  0  0  0  0  0  0
    0.7217    1.1667    0.0000 O   0  0  0  0  0  0  0  0  0  0  0  0
   -0.1444   -1.3333    0.0000 O   0  0  0  0  0  0  0  0  0  0  0  0
  2  1  2  0
  3  2  1  0
  4  2  1  0
  4 12  1  1
  5  4  1  0
  6  5  1  0
  8  7  1  0
  6  7  1  0
  9  8  1  0
 10  9  2  0
 11  9  1  0
  5 13  1  0
  6 14  1  0
V    3 *
M  END
>  <ChEBI ID>  (119) 
CHEBI:141829

>  <ChEBI Name>  (119) 
3,4-dihydroxy-L-argininium residue

>  <Star>  (119) 
2

>  <Definition>  (119) 
An L-arginine residue that is substituted by hydroxy groups at positions 3 and 4; major microspecies at pH 7.3.

>  <SMILES>  (119) 
O=C(*)[C@@H](N*)C(C(CNC(=[NH2+])N)O)O

>  <Formulae>  (119) 
C6H13N4O3

>  <Charge>  (119) 
+1

>  <Mass>  (119) 
189.193

>  <Monoisotopic Mass>  (119) 
189.09877

>  <Synonyms>  (119) 
(2S)-3,4-dihydroxyargininium residue
3,4-dihydroxy-L-arginine residue

>  <PubChem Database Links>  (119) 
SID: 85341498

$$$$

     RDKit          2D

 16 17  0  0  0  0  0  0  0  0999 V2000
    0.0039   -0.3182    0.0000 C   0  0  0  0  0  0  0  0  0  0  0  0
   -0.1006   -1.3127    0.0000 C   0  0  0  0  0  0  0  0  0  0  0  0
   -1.0788   -1.5206    0.0000 N   0  0  0  0  0  0  0  0  0  0  0  0
   -1.5788   -0.6547    0.0000 C   0  0  0  0  0  0  0  0  0  0  0  0
   -0.9097    0.0885    0.0000 C   0  0  0  0  0  0  0  0  0  0  0  0
   -1.2187    1.0395    0.0000 C   0  0  0  0  0  0  0  0  0  0  0  0
   -2.5571   -0.4467    0.0000 C   0  0  0  0  0  0  0  0  0  0  0  0
   -2.8659    0.5044    0.0000 C   0  0  0  0  0  0  0  0  0  0  0  0
   -2.1968    1.2475    0.0000 C   0  0  0  0  0  0  0  0  0  0  0  0
    2.6019    1.1818    0.0000 O   0  0  0  0  0  0  0  0  0  0  0  0
    2.6019    0.1818    0.0000 C   0  0  0  0  0  0  0  0  0  0  0  0
    1.7359   -0.3182    0.0000 C   0  0  0  0  0  0  0  0  0  0  0  0
    0.8699    0.1818    0.0000 C   0  0  0  0  0  0  0  0  0  0  0  0
    1.7359   -1.3182    0.0000 N   0  0  0  0  0  0  0  0  0  0  0  0
    3.4681   -0.3182    0.0000 O   0  0  0  0  0  0  0  0  0  0  0  0
   -3.2263   -1.1898    0.0000 O   0  0  0  0  0  0  0  0  0  0  0  0
  1  2  2  0
  1  5  1  0
  2  3  1  0
  3  4  1  0
  4  5  2  0
  4  7  1  0
  5  6  1  0
  6  9  2  0
  7  8  2  0
  8  9  1  0
 11 10  2  0
 15 11  1  0
 12 11  1  0
 12 14  1  1
 12 13  1  0
  1 13  1  0
  7 16  1  0
V   15 *
M  END
>  <ChEBI ID>  (120) 
CHEBI:141831

>  <ChEBI Name>  (120) 
7-hydroxy-L-tryptophan residue

>  <Star>  (120) 
3

>  <Definition>  (120) 
An L-tryptophan residue that is substituted by a hydroxy group at position 7.

>  <SMILES>  (120) 
C1(=CNC2=C1C=CC=C2O)C[C@@H](C(=O)*)N*

>  <Formulae>  (120) 
C11H10N2O2

>  <Charge>  (120) 
0

>  <Mass>  (120) 
202.210

>  <Monoisotopic Mass>  (120) 
202.07423

>  <Synonyms>  (120) 
(2S)-7'-hydroxytryptophan residue
7'-hydroxy-L-tryptophan residue
7-OH-Trp residue
7-hydroxy-L-tryptophan residue

>  <PubMed citation Links>  (120) 
20223990

>  <RESID Database Links>  (120) 
AA0520

>  <PubChem Database Links>  (120) 
SID: 85341500

>  <Last Modified>  (120) 
07 Dec 2018

$$$$

     RDKit          2D

 10 10  0  0  0  0  0  0  0  0999 V2000
    2.0159    0.4353    0.0000 O   0  0  0  0  0  0  0  0  0  0  0  0
    1.2605   -0.2200    0.0000 C   0  0  0  0  0  0  0  0  0  0  0  0
    1.4503   -1.2018    0.0000 O   0  0  0  0  0  0  0  0  0  0  0  0
    0.3153    0.1064    0.0000 C   0  0  0  0  0  0  0  0  0  0  0  0
    0.0239    1.0630    0.0000 C   0  0  0  0  0  0  0  0  0  0  0  0
   -0.9760    1.0815    0.0000 C   0  0  0  0  0  0  0  0  0  0  0  0
   -1.3024    0.1362    0.0000 C   0  0  0  0  0  0  0  0  0  0  0  0
   -0.5044   -0.4663    0.0000 N   0  0  0  0  0  0  0  0  0  0  0  0
    0.6265    1.8611    0.0000 O   0  0  0  0  0  0  0  0  0  0  0  0
   -1.5488    1.9011    0.0000 O   0  0  0  0  0  0  0  0  0  0  0  0
  7  6  1  0
  2  1  2  0
  3  2  1  0
  4  2  1  1
  6  5  1  0
  5  4  1  0
  4  8  1  0
  7  8  1  0
  5  9  1  0
  6 10  1  0
V    3 *
M  END
>  <ChEBI ID>  (121) 
CHEBI:141832

>  <ChEBI Name>  (121) 
3,4-dihydroxy-L-proline residue

>  <Star>  (121) 
2

>  <Definition>  (121) 
An L-proline residue that is substituted by hydroxy groups at positions 3 and 4.

>  <SMILES>  (121) 
O=C(*)[C@@H]1C(C(CN1*)O)O

>  <Formulae>  (121) 
C5H7NO3

>  <Charge>  (121) 
0

>  <Mass>  (121) 
129.114

>  <Monoisotopic Mass>  (121) 
129.04259

>  <Synonyms>  (121) 
(2S)-3,4-dihydroxyproline residue
3,4-dihydroxy-L-proline residue
3,4-dihydroxy-L-prolyl

>  <PubChem Database Links>  (121) 
SID: 85341501

>  <Last Modified>  (121) 
28 Aug 2018

$$$$

     RDKit          2D

 13 13  0  0  0  0  0  0  0  0999 V2000
   13.9095   -6.5568    0.0000 C   0  0  0  0  0  0  0  0  0  0  0  0
   13.9095   -5.5568    0.0000 O   0  0  0  0  0  0  0  0  0  0  0  0
   13.0435   -7.0568    0.0000 C   0  0  0  0  0  0  0  0  0  0  0  0
   13.0435   -8.0568    0.0000 N   0  0  0  0  0  0  0  0  0  0  0  0
   12.1775   -6.5569    0.0000 C   0  0  0  0  0  0  0  0  0  0  0  0
   11.3115   -7.0569    0.0000 C   0  0  0  0  0  0  0  0  0  0  0  0
   11.3115   -8.0569    0.0000 C   0  0  0  0  0  0  0  0  0  0  0  0
   10.4454   -6.5569    0.0000 C   0  0  0  0  0  0  0  0  0  0  0  0
    9.5794   -7.0569    0.0000 C   0  0  0  0  0  0  0  0  0  0  0  0
   10.4454   -8.5569    0.0000 C   0  0  0  0  0  0  0  0  0  0  0  0
    9.5795   -8.0569    0.0000 C   0  0  0  0  0  0  0  0  0  0  0  0
   14.7755   -7.0568    0.0000 O   0  0  0  0  0  0  0  0  0  0  0  0
   12.1773   -5.5569    0.0000 O   0  0  0  0  0  0  0  0  0  0  0  0
  1 12  1  0
  2  1  2  0
  3  1  1  0
  3  4  1  1
  5  3  1  0
  6  5  1  0
  7  6  2  0
  8  6  1  0
  9  8  2  0
 10  7  1  0
 11  9  1  0
 10 11  2  0
  5 13  1  0
V   12 *
M  END
>  <ChEBI ID>  (122) 
CHEBI:141841

>  <ChEBI Name>  (122) 
3-hydroxy-L-phenylalanine residue

>  <Star>  (122) 
2

>  <Definition>  (122) 
An L-phenylalanine residue that is substituted by an hydroxy group at position 3.

>  <SMILES>  (122) 
C(*)(=O)[C@@H](N*)C(C1=CC=CC=C1)O

>  <Formulae>  (122) 
C9H9NO2

>  <Charge>  (122) 
0

>  <Mass>  (122) 
163.174

>  <Monoisotopic Mass>  (122) 
163.06333

>  <Synonyms>  (122) 
(2S)-3-hydroxyphenylalanine residue
3-hydroxy-L-phenylalanine residue

>  <PubMed citation Links>  (122) 
7398618
1880060
7844053
10625477
15651011
16734421

>  <RESID Database Links>  (122) 
AA0462

>  <PubChem Database Links>  (122) 
SID: 85341510

$$$$

     RDKit          2D

 11 10  0  0  0  0  0  0  0  0999 V2000
   12.3848  -24.1333    0.0000 C   0  0  0  0  0  0  0  0  0  0  0  0
   13.2496  -23.6319    0.0000 C   0  0  0  0  0  0  0  0  0  0  0  0
   11.5202  -23.6319    0.0000 C   0  0  0  0  0  0  0  0  0  0  0  0
   12.3848  -25.1317    0.0000 N   0  0  0  0  0  0  0  0  0  0  0  0
   14.1187  -24.1333    0.0000 O   0  0  0  0  0  0  0  0  0  0  0  0
   13.2496  -22.6334    0.0000 O   0  0  0  0  0  0  0  0  0  0  0  0
   10.6552  -24.1333    0.0000 C   0  0  0  0  0  0  0  0  0  0  0  0
    9.7905  -23.6319    0.0000 C   0  0  0  0  0  0  0  0  0  0  0  0
    8.9214  -24.1333    0.0000 C   0  0  0  0  0  0  0  0  0  0  0  0
    9.7905  -22.6334    0.0000 O   0  0  0  0  0  0  0  0  0  0  0  0
    8.0565  -23.6319    0.0000 N   0  0  0  0  0  0  0  0  0  0  0  0
  1  2  1  0
  1  3  1  0
  1  4  1  1
  2  5  1  0
  2  6  2  0
  3  7  1  0
  7  8  1  0
  8  9  1  0
  8 10  1  1
  9 11  1  0
V    5 *
M  END
>  <ChEBI ID>  (123) 
CHEBI:141843

>  <ChEBI Name>  (123) 
(5S)-5-hydroxy-L-lysinium residue

>  <Star>  (123) 
2

>  <Definition>  (123) 
An L-lysinium residue that is substituted by an hydroxy group at position 5 (the 5S stereoisomer); major microspecies at pH 7.3.

>  <SMILES>  (123) 
[C@@H](C(*)=O)(CC[C@@H](C[NH3+])O)N*

>  <Formulae>  (123) 
C6H13N2O2

>  <Charge>  (123) 
+1

>  <Mass>  (123) 
145.180

>  <Monoisotopic Mass>  (123) 
145.09770

>  <Synonyms>  (123) 
(2S,5S)-5-hydroxylysine residue
(2S,5S)-5-hydroxylysinium residue
(5S)-5-hydroxy-L-lysine residue

>  <PubMed citation Links>  (123) 
19574390
22238144

>  <RESID Database Links>  (123) 
AA0578

>  <PubChem Database Links>  (123) 
SID: 85341512

>  <Rhea Database Links>  (123) 
RHEA:58360

$$$$

     RDKit          2D

 10  9  0  0  0  0  0  0  0  0999 V2000
    1.0063    0.3383    0.0000 C   0  0  0  0  0  0  0  0  0  0  0  0
    1.8693   -0.1599    0.0000 O   0  0  0  0  0  0  0  0  0  0  0  0
    0.1435   -0.1599    0.0000 C   0  0  0  0  0  0  0  0  0  0  0  0
   -0.7195    0.3383    0.0000 C   0  0  0  0  0  0  0  0  0  0  0  0
   -0.7195    1.3703    0.0000 C   0  0  0  0  0  0  0  0  0  0  0  0
   -1.5824   -0.1599    0.0000 C   0  0  0  0  0  0  0  0  0  0  0  0
   -2.4454    0.3383    0.0000 C   0  0  0  0  0  0  0  0  0  0  0  0
    1.0063    1.3347    0.0000 O   0  0  0  0  0  0  0  0  0  0  0  0
    0.1435   -1.1564    0.0000 N   0  0  0  0  0  0  0  0  0  0  0  0
   -1.5824   -1.1564    0.0000 O   0  0  0  0  0  0  0  0  0  0  0  0
  1  8  2  0
  2  1  1  0
  3  1  1  0
  3  9  1  1
  4  3  1  0
  4  5  1  6
  6  4  1  0
  6  7  1  1
  6 10  1  0
V    2 *
M  END
>  <ChEBI ID>  (124) 
CHEBI:141844

>  <ChEBI Name>  (124) 
(3R,4S)-4-hydroxy-L-isoleucine residue

>  <Star>  (124) 
2

>  <Definition>  (124) 
An L-isoleucine residue that is substituted by an hydroxy group at position 4 (the 3R,4S diastereoisomer).

>  <SMILES>  (124) 
C(=O)(*)[C@@H](N*)[C@@H](C)[C@H](C)O

>  <Formulae>  (124) 
C6H11NO2

>  <Charge>  (124) 
0

>  <Mass>  (124) 
129.157

>  <Monoisotopic Mass>  (124) 
129.07898

>  <Synonyms>  (124) 
(2S,3R,4S)-4-hydroxyisoleucine residue
(3R,4S)-4-hydroxy-L-isoleucine residue

>  <PubMed citation Links>  (124) 
363352

>  <RESID Database Links>  (124) 
AA0448

>  <PubChem Database Links>  (124) 
SID: 85341513

$$$$

     RDKit          2D

 11 10  0  0  0  0  0  0  0  0999 V2000
   17.6106  -10.0147    0.0000 C   0  0  0  0  0  0  0  0  0  0  0  0
   17.6106   -9.0147    0.0000 O   0  0  0  0  0  0  0  0  0  0  0  0
   16.7445  -10.5147    0.0000 C   0  0  0  0  0  0  0  0  0  0  0  0
   16.7445  -11.5147    0.0000 N   0  0  0  0  0  0  0  0  0  0  0  0
   15.8786  -10.0147    0.0000 C   0  0  0  0  0  0  0  0  0  0  0  0
   14.1465  -10.0146    0.0000 C   0  0  0  0  0  0  0  0  0  0  0  0
   14.1465   -9.0146    0.0000 O   0  0  0  0  0  0  0  0  0  0  0  0
   13.2804  -10.5146    0.0000 O   0  0  0  0  0  0  0  0  0  0  0  0
   15.0125  -10.5147    0.0000 C   0  0  0  0  0  0  0  0  0  0  0  0
   18.4766  -10.5147    0.0000 O   0  0  0  0  0  0  0  0  0  0  0  0
   15.0125  -11.5147    0.0000 O   0  0  0  0  0  0  0  0  0  0  0  0
  1 10  1  0
  2  1  2  0
  3  1  1  0
  3  4  1  1
  3  5  1  0
  7  6  2  0
  8  6  1  0
  9  6  1  0
  5  9  1  0
  9 11  1  0
V   10 *
M  END
>  <ChEBI ID>  (125) 
CHEBI:141845

>  <ChEBI Name>  (125) 
4-hydroxy-L-glutamate residue

>  <Star>  (125) 
3

>  <Definition>  (125) 
An L-glutamate residue that is substituted by a hydroxy group at position 4; major microspecies at pH 7.3.

>  <SMILES>  (125) 
C(*)(=O)[C@@H](N*)CC(C(=O)[O-])O

>  <Formulae>  (125) 
C5H6NO4

>  <Charge>  (125) 
-1

>  <Mass>  (125) 
144.106

>  <Monoisotopic Mass>  (125) 
144.02968

>  <Synonyms>  (125) 
(2S)-4-hydroxyglutamate residue
4-hydroxy-L-glutamate residue

>  <PubMed citation Links>  (125) 
893891
18406324

>  <RESID Database Links>  (125) 
AA0487

>  <PubChem Database Links>  (125) 
SID: 85341514

>  <Last Modified>  (125) 
01 Jul 2019

$$$$

     RDKit          2D

 10  9  0  0  0  0  0  0  0  0999 V2000
   -0.4330    0.2501    0.0000 C   0  0  0  0  0  0  0  0  0  0  0  0
   -2.1651    0.2501    0.0000 O   0  0  0  0  0  0  0  0  0  0  0  0
   -1.2990   -0.2499    0.0000 C   0  0  0  0  0  0  0  0  0  0  0  0
   -1.2990   -1.2499    0.0000 O   0  0  0  0  0  0  0  0  0  0  0  0
    1.2990    0.2501    0.0000 C   0  0  0  0  0  0  0  0  0  0  0  0
    1.2990    1.2500    0.0000 O   0  0  0  0  0  0  0  0  0  0  0  0
    0.4330   -0.2501    0.0000 C   0  0  0  0  0  0  0  0  0  0  0  0
    0.4330   -1.2500    0.0000 N   0  0  0  0  0  0  0  0  0  0  0  0
    2.1649   -0.2501    0.0000 O   0  0  0  0  0  0  0  0  0  0  0  0
   -0.4328    1.2500    0.0000 O   0  0  0  0  0  0  0  0  0  0  0  0
  5  9  1  0
  7  5  1  0
  1  7  1  0
  3  1  1  0
  2  3  1  0
  3  4  2  0
  5  6  2  0
  7  8  1  1
  1 10  1  6
V    9 *
M  END
>  <ChEBI ID>  (126) 
CHEBI:141848

>  <ChEBI Name>  (126) 
(3R)-3-hydroxy-L-aspartate residue

>  <Star>  (126) 
2

>  <Definition>  (126) 
A 3-hydroxy-L-aspartate residue in which the carbon bearing the alcoholic hydroxy group (position 3) has R-configuration.; major microspecies at pH 7.3.

>  <SMILES>  (126) 
[C@@H]([C@@H](C(*)=O)N*)(C([O-])=O)O

>  <Formulae>  (126) 
C4H4NO4

>  <Charge>  (126) 
-1

>  <Mass>  (126) 
130.079

>  <Monoisotopic Mass>  (126) 
130.01403

>  <Synonyms>  (126) 
(2S,3R)-5-hydroxyaspartate residue
(3R)-3-hydroxy-L-aspartate residue

>  <PubMed citation Links>  (126) 
13753215
6572939
6871167
8355279

>  <RESID Database Links>  (126) 
AA0027

>  <PubChem Database Links>  (126) 
SID: 85341517

>  <Last Modified>  (126) 
31 Aug 2018

$$$$

     RDKit          2D

 10  9  0  0  0  0  0  0  0  0999 V2000
   -0.4330    0.2501    0.0000 C   0  0  0  0  0  0  0  0  0  0  0  0
   -2.1651    0.2501    0.0000 N   0  0  0  0  0  0  0  0  0  0  0  0
   -1.2990   -0.2500    0.0000 C   0  0  0  0  0  0  0  0  0  0  0  0
   -1.2990   -1.2499    0.0000 O   0  0  0  0  0  0  0  0  0  0  0  0
    1.2990    0.2501    0.0000 C   0  0  0  0  0  0  0  0  0  0  0  0
    1.2990    1.2500    0.0000 O   0  0  0  0  0  0  0  0  0  0  0  0
    0.4330   -0.2501    0.0000 C   0  0  0  0  0  0  0  0  0  0  0  0
    0.4330   -1.2500    0.0000 N   0  0  0  0  0  0  0  0  0  0  0  0
    2.1649   -0.2501    0.0000 O   0  0  0  0  0  0  0  0  0  0  0  0
   -0.4328    1.2500    0.0000 O   0  0  0  0  0  0  0  0  0  0  0  0
  5  9  1  0
  7  5  1  0
  1  7  1  0
  3  1  1  0
  2  3  1  0
  3  4  2  0
  5  6  2  0
  7  8  1  1
  1 10  1  6
V    9 *
M  END
>  <ChEBI ID>  (127) 
CHEBI:141853

>  <ChEBI Name>  (127) 
(3R)-3-hydroxy-L-asparagine residue

>  <Star>  (127) 
2

>  <Definition>  (127) 
An L-asparagine residue that is substituted by an hydroxy group at position 3 (the 3R stereoisomer).

>  <SMILES>  (127) 
[C@@H]([C@@H](C(*)=O)N*)(C(N)=O)O

>  <Formulae>  (127) 
C4H6N2O3

>  <Charge>  (127) 
0

>  <Mass>  (127) 
130.102

>  <Monoisotopic Mass>  (127) 
130.03784

>  <Synonyms>  (127) 
(2S,3R)-3-hydroxyasparagine residue
(3R)-3-hydroxy-L-asparagine residue

>  <PubMed citation Links>  (127) 
2948188
2820791
12743029

>  <RESID Database Links>  (127) 
AA0026

>  <PubChem Database Links>  (127) 
SID: 85341522

$$$$

     RDKit          2D

 13 12  0  0  0  0  0  0  0  0999 V2000
    2.4537    1.1667    0.0000 O   0  0  0  0  0  0  0  0  0  0  0  0
    2.4537    0.1667    0.0000 C   0  0  0  0  0  0  0  0  0  0  0  0
    3.3197   -0.3333    0.0000 O   0  0  0  0  0  0  0  0  0  0  0  0
    1.5877   -0.3333    0.0000 C   0  0  0  0  0  0  0  0  0  0  0  0
    0.7217    0.1667    0.0000 C   0  0  0  0  0  0  0  0  0  0  0  0
   -0.1444   -0.3333    0.0000 C   0  0  0  0  0  0  0  0  0  0  0  0
   -1.0103    0.1667    0.0000 C   0  0  0  0  0  0  0  0  0  0  0  0
   -1.8764   -0.3333    0.0000 N   0  0  0  0  0  0  0  0  0  0  0  0
   -2.7424    0.1667    0.0000 C   0  0  0  0  0  0  0  0  0  0  0  0
   -2.7424    1.1667    0.0000 N   0  0  0  0  0  0  0  0  0  0  0  0
   -3.6085   -0.3333    0.0000 N   0  0  0  0  0  0  0  0  0  0  0  0
    1.5877   -1.3333    0.0000 N   0  0  0  0  0  0  0  0  0  0  0  0
   -0.1444   -1.3333    0.0000 O   0  0  0  0  0  0  0  0  0  0  0  0
  2  1  2  0
  3  2  1  0
  4  2  1  0
  4 12  1  1
  4  5  1  0
  6  5  1  0
  8  7  1  0
  6  7  1  0
  9  8  1  0
 10  9  2  0
 11  9  1  0
  6 13  1  0
V    3 *
M  END
>  <ChEBI ID>  (128) 
CHEBI:141854

>  <ChEBI Name>  (128) 
4-hydroxy-L-argininium residue

>  <Star>  (128) 
3

>  <Definition>  (128) 
An L-argininium residue that is substituted by a hydroxy group at position 4; major microspecies at pH 7.3.

>  <SMILES>  (128) 
O=C(*)[C@@H](N*)CC(CNC(=[NH2+])N)O

>  <Formulae>  (128) 
C6H13N4O2

>  <Charge>  (128) 
+1

>  <Mass>  (128) 
173.193

>  <Monoisotopic Mass>  (128) 
173.10385

>  <Synonyms>  (128) 
(2S)-4-hydroxyarginine residue
(2S)-4-hydroxyargininium residue
4-hydroxy-L-arginine residue

>  <PubMed citation Links>  (128) 
7650037
10966817

>  <RESID Database Links>  (128) 
AA0215

>  <PubChem Database Links>  (128) 
SID: 85341523

>  <Last Modified>  (128) 
02 Apr 2019

$$$$

     RDKit          2D

 29 31  0  0  0  0  0  0  0  0999 V2000
    8.2091   -3.0782    0.0000 N   0  0  0  0  0  0  0  0  0  0  0  0
    8.2091   -4.0774    0.0000 C   0  0  0  0  0  0  0  0  0  0  0  0
    7.3438   -4.5772    0.0000 N   0  0  0  0  0  0  0  0  0  0  0  0
    7.3435   -5.5764    0.0000 C   0  0  0  0  0  0  0  0  0  0  0  0
    8.2091   -6.0762    0.0000 N   0  0  0  0  0  0  0  0  0  0  0  0
    9.0745   -5.5764    0.0000 C   0  0  0  0  0  0  0  0  0  0  0  0
    9.0745   -4.5772    0.0000 C   0  0  0  0  0  0  0  0  0  0  0  0
   10.0248   -4.2683    0.0000 N   0  0  0  0  0  0  0  0  0  0  0  0
   10.6124   -5.0770    0.0000 C   0  0  0  0  0  0  0  0  0  0  0  0
   10.0248   -5.8853    0.0000 N   0  0  0  0  0  0  0  0  0  0  0  0
   10.3337   -6.8359    0.0000 C   0  0  0  0  0  0  0  0  0  0  0  0
    9.7462   -7.6444    0.0000 O   0  0  0  0  0  0  0  0  0  0  0  0
   10.3336   -8.4530    0.0000 C   0  0  0  0  0  0  0  0  0  0  0  0
   11.2840   -8.1441    0.0000 C   0  0  0  0  0  0  0  0  0  0  0  0
   12.0925   -8.7316    0.0000 O   0  0  0  0  0  0  0  0  0  0  0  0
   11.2842   -7.1446    0.0000 C   0  0  0  0  0  0  0  0  0  0  0  0
   12.0925   -6.5573    0.0000 O   0  0  0  0  0  0  0  0  0  0  0  0
    9.0254   -9.4033    0.0000 O   0  0  0  0  0  0  0  0  0  0  0  0
    8.1601  -10.9023    0.0000 O   0  0  0  0  0  0  0  0  0  0  0  0
    8.1601   -9.9030    0.0000 P   0  0  0  0  0  0  0  0  0  0  0  0
    8.1601   -8.9038    0.0000 O   0  0  0  0  0  0  0  0  0  0  0  0
    7.2947   -9.4033    0.0000 O   0  0  0  0  0  0  0  0  0  0  0  0
   10.0247   -9.4033    0.0000 C   0  0  0  0  0  0  0  0  0  0  0  0
    6.4390   -9.9605    0.0000 C   0  0  0  0  0  0  0  0  0  0  0  0
    5.5735   -9.4609    0.0000 C   0  0  0  0  0  0  0  0  0  0  0  0
    5.5735   -8.4616    0.0000 N   0  0  0  0  0  0  0  0  0  0  0  0
    4.7079   -9.9605    0.0000 C   0  0  0  0  0  0  0  0  0  0  0  0
    3.8427   -9.4609    0.0000 O   0  0  0  0  0  0  0  0  0  0  0  0
    4.7080  -10.9598    0.0000 O   0  0  0  0  0  0  0  0  0  0  0  0
  1  2  1  0
  2  3  2  0
  2  7  1  0
  3  4  1  0
  4  5  2  0
  5  6  1  0
  6  7  2  0
  6 10  1  0
  7  8  1  0
  8  9  2  0
  9 10  1  0
 11 10  1  1
 11 12  1  0
 11 16  1  0
 12 13  1  0
 13 23  1  1
 13 14  1  0
 14 15  1  6
 14 16  1  0
 16 17  1  6
 18 20  1  0
 20 19  2  0
 20 22  1  0
 20 21  1  0
 23 18  1  0
 25 24  1  0
 22 24  1  0
 25 26  1  1
 25 27  1  0
 27 28  1  0
 27 29  2  0
V   28 *
M  END
>  <ChEBI ID>  (129) 
CHEBI:142516

>  <ChEBI Name>  (129) 
O-adenylyl-L-serine(1-) residue

>  <Star>  (129) 
2

>  <SMILES>  (129) 
NC1=NC=NC2=C1N=CN2[C@@H]3O[C@H](COP(=O)(OC[C@H](N*)C(*)=O)[O-])[C@@H](O)[C@H]3O

>  <Formulae>  (129) 
C13H16N6O8P

>  <Charge>  (129) 
-1

>  <Mass>  (129) 
415.276

>  <Monoisotopic Mass>  (129) 
415.07672

>  <Synonyms>  (129) 
3-O-adenylyl-L-serine residue

>  <PubMed citation Links>  (129) 
30270044

>  <PubChem Database Links>  (129) 
SID: 85342177

>  <Rhea Database Links>  (129) 
RHEA:58120

$$$$

     RDKit          2D

 47 50  0  0  1  0  0  0  0  0999 V2000
   15.6141  -26.7185    0.0000 O   0  0  0  0  0  0  0  0  0  0  0  0
   21.7269  -26.5911    0.0000 O   0  0  0  0  0  0  0  0  0  0  0  0
   20.7797  -26.8989    0.0000 C   0  0  0  0  0  0  0  0  0  0  0  0
   22.3122  -27.3968    0.0000 C   0  0  0  0  0  0  0  0  0  0  0  0
   20.7797  -27.8948    0.0000 C   0  0  0  0  0  0  0  0  0  0  0  0
   21.7269  -28.2027    0.0000 C   0  0  0  0  0  0  0  0  0  0  0  0
   19.9739  -28.4802    0.0000 O   0  0  0  0  0  0  0  0  0  0  0  0
   22.0346  -29.1498    0.0000 O   0  0  0  0  0  0  0  0  0  0  0  0
   19.9739  -26.3135    0.0000 C   0  0  0  0  0  0  0  0  0  0  0  0
   26.5282  -28.2535    0.0000 N   0  0  0  0  0  0  0  0  0  0  0  0
   24.8409  -26.8989    0.0000 N   0  0  0  0  0  0  0  0  0  0  0  0
   23.3081  -27.3968    0.0000 N   0  0  0  0  0  0  0  0  0  0  0  0
   23.8936  -26.5911    0.0000 C   0  0  0  0  0  0  0  0  0  0  0  0
   24.8409  -27.8948    0.0000 C   0  0  0  0  0  0  0  0  0  0  0  0
   23.8936  -28.2027    0.0000 C   0  0  0  0  0  0  0  0  0  0  0  0
   23.6866  -29.1768    0.0000 N   0  0  0  0  0  0  0  0  0  0  0  0
   25.5811  -28.5612    0.0000 C   0  0  0  0  0  0  0  0  0  0  0  0
   25.3738  -29.5354    0.0000 N   0  0  0  0  0  0  0  0  0  0  0  0
   24.4267  -29.8431    0.0000 C   0  0  0  0  0  0  0  0  0  0  0  0
   18.2016  -25.2246    0.0000 O   0  0  0  0  0  0  0  0  0  0  0  0
   17.3391  -26.7185    0.0000 O   0  0  0  0  0  0  0  0  0  0  0  0
   19.0642  -26.7185    0.0000 O   0  0  0  0  0  0  0  0  0  0  0  0
   16.4765  -25.2246    0.0000 O   0  0  0  0  0  0  0  0  0  0  0  0
   16.4765  -26.2205    0.0000 P   0  0  0  0  0  0  0  0  0  0  0  0
   16.4765  -27.2165    0.0000 O   0  0  0  0  0  0  0  0  0  0  0  0
   18.2016  -26.2205    0.0000 P   0  0  0  0  0  0  0  0  0  0  0  0
   18.2016  -27.2165    0.0000 O   0  0  0  0  0  0  0  0  0  0  0  0
   14.7515  -26.2205    0.0000 C   0  0  0  0  0  0  0  0  0  0  0  0
   13.8891  -26.7186    0.0000 C   0  0  0  0  0  0  0  0  0  0  0  0
   12.2776  -26.7172    0.0000 C   0  0  0  0  0  0  0  0  0  0  0  0
   13.0838  -26.1325    0.0000 O   0  0  0  0  0  0  0  0  0  0  0  0
   12.5845  -27.6647    0.0000 C   0  0  0  0  0  0  0  0  0  0  0  0
   13.5805  -27.6656    0.0000 C   0  0  0  0  0  0  0  0  0  0  0  0
   14.0453  -28.6998    0.0000 O   0  0  0  0  0  0  0  0  0  0  0  0
   12.1543  -28.6499    0.0000 O   0  0  0  0  0  0  0  0  0  0  0  0
   11.3305  -26.4086    0.0000 N   0  0  0  0  0  0  0  0  0  0  0  0
   10.4680  -26.9066    0.0000 C   0  0  0  0  0  0  0  0  0  0  0  0
    9.6054  -26.4087    0.0000 N   0  0  0  0  0  0  0  0  0  0  0  0
   10.4680  -27.9027    0.0000 N   0  0  0  0  0  0  0  0  0  0  0  0
    9.6054  -28.4008    0.0000 C   0  0  0  0  0  0  0  0  0  0  0  0
    9.6054  -29.3966    0.0000 C   0  0  0  0  0  0  0  0  0  0  0  0
    8.7430  -29.8947    0.0000 C   0  0  0  0  0  0  0  0  0  0  0  0
    8.7430  -30.8905    0.0000 C   0  0  0  0  0  0  0  0  0  0  0  0
    7.8804  -31.3886    0.0000 C   0  0  0  0  0  0  0  0  0  0  0  0
    7.8804  -32.3844    0.0000 O   0  0  0  0  0  0  0  0  0  0  0  0
    7.0180  -30.8905    0.0000 O   0  0  0  0  0  0  0  0  0  0  0  0
    9.6129  -31.3536    0.0000 N   0  0  0  0  0  0  0  0  0  0  0  0
  1 24  1  0
  3  2  1  0
  4  2  1  0
  5  3  1  0
  3  9  1  1
  6  4  1  0
  4 12  1  1
  5  6  1  0
  5  7  1  6
  6  8  1  6
 22  9  1  0
 10 17  1  0
 11 13  2  0
 14 11  1  0
 13 12  1  0
 15 12  1  0
 14 15  2  0
 17 14  1  0
 15 16  1  0
 19 16  2  0
 17 18  2  0
 18 19  1  0
 26 20  2  0
 21 26  1  0
 21 24  1  0
 22 26  1  0
 23 24  2  0
 24 25  1  0
 26 27  1  0
  1 28  1  0
 29 28  1  6
 31 30  1  0
 32 30  1  0
 29 31  1  0
 33 32  1  0
 33 29  1  0
 33 34  1  1
 32 35  1  1
 30 36  1  0
 37 38  2  0
 37 39  1  0
 39 40  1  0
 40 41  1  0
 41 42  1  0
 43 42  1  0
 43 44  1  0
 44 45  1  0
 44 46  2  0
 43 47  1  6
 37 36  1  0
V   45 *
M  END
>  <ChEBI ID>  (130) 
CHEBI:142554

>  <ChEBI Name>  (130) 
N(omega)-(ADP-D-ribosyl)-L-argininium(1-) residue

>  <Star>  (130) 
2

>  <Definition>  (130) 
An L-alpha-amino acid residue derived from N(omega)-(ADP-D-ribosyl)-L-arginine.

>  <SMILES>  (130) 
O(P(OP(=O)(OC[C@H]1O[C@H]([C@@H]([C@@H]1O)O)N2C=NC3=C2N=CN=C3N)[O-])(=O)[O-])C[C@H]4OC([C@@H]([C@@H]4O)O)NC(=[NH2+])NCCC[C@@H](C(*)=O)N*

>  <Formulae>  (130) 
C21H32N9O14P2

>  <Charge>  (130) 
-1

>  <Mass>  (130) 
696.479

>  <Monoisotopic Mass>  (130) 
696.15439

>  <Synonyms>  (130) 
N(omega)-(ADP-D-ribosyl)-L-arginine residue

>  <MetaCyc Database Links>  (130) 
CPD-557

>  <PubChem Database Links>  (130) 
SID: 85342215

>  <Rhea Database Links>  (130) 
RHEA:14885
RHEA:19149

$$$$

     RDKit          2D

 44 47  0  0  0  0  0  0  0  0999 V2000
    6.9897   -4.7080    0.0000 N   0  0  0  0  0  0  0  0  0  0  0  0
    6.1277   -5.2058    0.0000 C   0  0  0  0  0  0  0  0  0  0  0  0
    5.2654   -4.7081    0.0000 O   0  0  0  0  0  0  0  0  0  0  0  0
    6.1277   -6.2012    0.0000 C   0  0  0  0  0  0  0  0  0  0  0  0
    5.2656   -6.6991    0.0000 C   0  0  0  0  0  0  0  0  0  0  0  0
    5.2657   -7.6946    0.0000 C   0  0  0  0  0  0  0  0  0  0  0  0
    4.4035   -6.2014    0.0000 N   0  0  0  0  0  0  0  0  0  0  0  0
    4.4035   -8.1923    0.0000 O   0  0  0  0  0  0  0  0  0  0  0  0
    6.1278   -8.1923    0.0000 O   0  0  0  0  0  0  0  0  0  0  0  0
    7.8519   -5.2058    0.0000 C   0  0  0  0  0  0  0  0  0  0  0  0
   11.1868   -5.2070    0.0000 O   0  0  0  0  0  0  0  0  0  0  0  0
   17.2968   -5.0798    0.0000 O   0  0  0  0  0  0  0  0  0  0  0  0
   16.3500   -5.3874    0.0000 C   0  0  0  0  0  0  0  0  0  0  0  0
   17.8817   -5.8850    0.0000 C   0  0  0  0  0  0  0  0  0  0  0  0
   16.3500   -6.3829    0.0000 C   0  0  0  0  0  0  0  0  0  0  0  0
   17.2968   -6.6906    0.0000 C   0  0  0  0  0  0  0  0  0  0  0  0
   15.5446   -6.9680    0.0000 O   0  0  0  0  0  0  0  0  0  0  0  0
   17.6044   -7.6373    0.0000 O   0  0  0  0  0  0  0  0  0  0  0  0
   15.5446   -4.8023    0.0000 C   0  0  0  0  0  0  0  0  0  0  0  0
   22.0958   -6.7414    0.0000 N   0  0  0  0  0  0  0  0  0  0  0  0
   20.4093   -5.3874    0.0000 N   0  0  0  0  0  0  0  0  0  0  0  0
   18.8772   -5.8850    0.0000 N   0  0  0  0  0  0  0  0  0  0  0  0
   19.4625   -5.0798    0.0000 C   0  0  0  0  0  0  0  0  0  0  0  0
   20.4093   -6.3829    0.0000 C   0  0  0  0  0  0  0  0  0  0  0  0
   19.4625   -6.6906    0.0000 C   0  0  0  0  0  0  0  0  0  0  0  0
   19.2555   -7.6642    0.0000 N   0  0  0  0  0  0  0  0  0  0  0  0
   21.1489   -7.0489    0.0000 C   0  0  0  0  0  0  0  0  0  0  0  0
   20.9420   -8.0227    0.0000 N   0  0  0  0  0  0  0  0  0  0  0  0
   19.9953   -8.3303    0.0000 C   0  0  0  0  0  0  0  0  0  0  0  0
   13.7730   -3.7139    0.0000 O   0  0  0  0  0  0  0  0  0  0  0  0
   12.9111   -5.2070    0.0000 O   0  0  0  0  0  0  0  0  0  0  0  0
   14.6353   -5.2070    0.0000 O   0  0  0  0  0  0  0  0  0  0  0  0
   12.0489   -3.7139    0.0000 O   0  0  0  0  0  0  0  0  0  0  0  0
   12.0489   -4.7094    0.0000 P   0  0  0  0  0  0  0  0  0  0  0  0
   12.0489   -5.7049    0.0000 O   0  0  0  0  0  0  0  0  0  0  0  0
   13.7730   -4.7094    0.0000 P   0  0  0  0  0  0  0  0  0  0  0  0
   13.7730   -5.7049    0.0000 O   0  0  0  0  0  0  0  0  0  0  0  0
   10.3247   -4.7094    0.0000 C   0  0  0  0  0  0  0  0  0  0  0  0
    9.4627   -5.2072    0.0000 C   0  0  0  0  0  0  0  0  0  0  0  0
    8.6578   -4.6214    0.0000 O   0  0  0  0  0  0  0  0  0  0  0  0
    8.1587   -6.1528    0.0000 C   0  0  0  0  0  0  0  0  0  0  0  0
    9.1543   -6.1537    0.0000 C   0  0  0  0  0  0  0  0  0  0  0  0
    9.6189   -7.1875    0.0000 O   0  0  0  0  0  0  0  0  0  0  0  0
    7.7288   -7.1375    0.0000 O   0  0  0  0  0  0  0  0  0  0  0  0
  1  2  1  0
  2  3  2  0
  2  4  1  0
  5  4  1  0
  5  6  1  0
  5  7  1  1
  6  8  1  0
  6  9  2  0
  1 10  1  0
 11 34  1  0
 13 12  1  0
 14 12  1  0
 15 13  1  0
 13 19  1  1
 16 14  1  0
 14 22  1  1
 15 16  1  0
 15 17  1  6
 16 18  1  6
 32 19  1  0
 20 27  1  0
 21 23  2  0
 24 21  1  0
 23 22  1  0
 25 22  1  0
 24 25  2  0
 27 24  1  0
 25 26  1  0
 29 26  2  0
 27 28  2  0
 28 29  1  0
 36 30  2  0
 31 36  1  0
 31 34  1  0
 32 36  1  0
 33 34  2  0
 34 35  1  0
 36 37  1  0
 11 38  1  0
 39 38  1  6
 40 10  1  0
 41 10  1  0
 39 40  1  0
 42 41  1  0
 42 39  1  0
 42 43  1  1
 41 44  1  1
V    8 *
M  END
>  <ChEBI ID>  (131) 
CHEBI:142555

>  <ChEBI Name>  (131) 
N(4)-(ADP-D-ribosyl)-L-asparagine(2-) residue

>  <Star>  (131) 
2

>  <Definition>  (131) 
An organic anionic group obtained by deprotonation of the diphosphate OH groups of 4-N-(ADP-D-ribosyl)-L-asparagine residue.

>  <SMILES>  (131) 
N(C(=O)C[C@@H](C(*)=O)N*)C1O[C@H](COP(OP(=O)(OC[C@H]2O[C@H]([C@@H]([C@@H]2O)O)N3C=NC4=C3N=CN=C4N)[O-])(=O)[O-])[C@H]([C@H]1O)O

>  <Formulae>  (131) 
C19H25N7O15P2

>  <Charge>  (131) 
-2

>  <Mass>  (131) 
653.388

>  <Monoisotopic Mass>  (131) 
653.08839

>  <Synonyms>  (131) 
N(4)-(ADP-D-ribosyl)-L-asparagine residue

>  <PubChem Database Links>  (131) 
SID: 85342216

>  <Rhea Database Links>  (131) 
RHEA:58228
RHEA:58252

>  <Last Modified>  (131) 
07 Jul 2020

$$$$

     RDKit          2D

 42 45  0  0  0  0  0  0  0  0999 V2000
    4.7147    2.4412    0.0000 N   0  0  0  0  0  0  0  0  0  0  0  0
    5.6657    2.7502    0.0000 C   0  0  0  0  0  0  0  0  0  0  0  0
    4.4057    1.4902    0.0000 C   0  0  0  0  0  0  0  0  0  0  0  0
    4.1269    3.2502    0.0000 C   0  0  0  0  0  0  0  0  0  0  0  0
    5.6657    3.7502    0.0000 C   0  0  0  0  0  0  0  0  0  0  0  0
    6.5318    2.2502    0.0000 N   0  0  0  0  0  0  0  0  0  0  0  0
    3.4546    1.1811    0.0000 O   0  0  0  0  0  0  0  0  0  0  0  0
    4.9935    0.6811    0.0000 C   0  0  0  0  0  0  0  0  0  0  0  0
    4.7147    4.0593    0.0000 N   0  0  0  0  0  0  0  0  0  0  0  0
    6.5318    4.2502    0.0000 C   0  0  0  0  0  0  0  0  0  0  0  0
    7.3979    2.7502    0.0000 C   0  0  0  0  0  0  0  0  0  0  0  0
    3.4546    0.1811    0.0000 C   0  0  0  0  0  0  0  0  0  0  0  0
    4.4057   -0.1279    0.0000 C   0  0  0  0  0  0  0  0  0  0  0  0
    5.9935    0.6811    0.0000 O   0  0  0  0  0  0  0  0  0  0  0  0
    7.3979    3.7502    0.0000 N   0  0  0  0  0  0  0  0  0  0  0  0
    6.5318    5.2502    0.0000 N   0  0  0  0  0  0  0  0  0  0  0  0
    2.6456   -0.4067    0.0000 C   0  0  0  0  0  0  0  0  0  0  0  0
    4.7147   -1.0789    0.0000 O   0  0  0  0  0  0  0  0  0  0  0  0
    1.7320    0.0001    0.0000 O   0  0  0  0  0  0  0  0  0  0  0  0
   -1.7320   -0.0001    0.0000 O   0  0  0  0  0  0  0  0  0  0  0  0
   -2.5411   -0.5879    0.0000 C   0  0  0  0  0  0  0  0  0  0  0  0
   -3.4546   -0.1811    0.0000 C   0  0  0  0  0  0  0  0  0  0  0  0
   -3.6626    0.7970    0.0000 O   0  0  0  0  0  0  0  0  0  0  0  0
   -4.3206   -0.6811    0.0000 C   0  0  0  0  0  0  0  0  0  0  0  0
   -4.6570    0.9016    0.0000 C   0  0  0  0  0  0  0  0  0  0  0  0
   -5.0638   -0.0120    0.0000 C   0  0  0  0  0  0  0  0  0  0  0  0
   -4.4251   -1.6757    0.0000 O   0  0  0  0  0  0  0  0  0  0  0  0
   -5.1570    1.7675    0.0000 O   0  0  0  0  0  0  0  0  0  0  0  0
   -6.0420   -0.2199    0.0000 O   0  0  0  0  0  0  0  0  0  0  0  0
    0.0000    0.0000    0.0000 O   0  0  0  0  0  0  0  0  0  0  0  0
    0.8661   -1.4999    0.0000 O   0  0  0  0  0  0  0  0  0  0  0  0
   -0.8659   -1.5000    0.0000 O   0  0  0  0  0  0  0  0  0  0  0  0
   -0.8659   -0.5000    0.0000 P   0  0  0  0  0  0  0  0  0  0  0  0
   -0.8661    0.4999    0.0000 O   0  0  0  0  0  0  0  0  0  0  0  0
    0.8661   -0.5000    0.0000 P   0  0  0  0  0  0  0  0  0  0  0  0
    0.8659    0.5000    0.0000 O   0  0  0  0  0  0  0  0  0  0  0  0
   -6.1570    1.7675    0.0000 C   0  0  0  0  0  0  0  0  0  0  0  0
   -6.6570    2.6335    0.0000 C   0  0  0  0  0  0  0  0  0  0  0  0
   -7.6570    2.6335    0.0000 N   0  0  0  0  0  0  0  0  0  0  0  0
   -6.1571    3.4995    0.0000 C   0  0  0  0  0  0  0  0  0  0  0  0
   -6.6571    4.3656    0.0000 O   0  0  0  0  0  0  0  0  0  0  0  0
   -5.1571    3.4995    0.0000 O   0  0  0  0  0  0  0  0  0  0  0  0
  1  2  1  0
  3  1  1  1
  1  4  1  0
  2  5  2  0
  2  6  1  0
  3  7  1  0
  3  8  1  0
  4  9  2  0
  5 10  1  0
  6 11  2  0
  7 12  1  0
  8 13  1  0
  8 14  1  6
 10 15  2  0
 10 16  1  0
 12 17  1  1
 13 18  1  6
 17 19  1  0
 20 21  1  0
 22 21  1  6
 22 23  1  0
 22 24  1  0
 23 25  1  0
 24 26  1  0
 24 27  1  1
 25 28  1  0
 26 29  1  1
  5  9  1  0
 11 15  1  0
 12 13  1  0
 25 26  1  0
 19 35  1  0
 35 30  1  0
 30 33  1  0
 35 31  2  0
 33 20  1  0
 33 32  2  0
 33 34  1  0
 35 36  1  0
 28 37  1  0
 38 37  1  0
 38 39  1  6
 38 40  1  0
 40 41  2  0
 40 42  1  0
V   42 *
M  END
>  <ChEBI ID>  (132) 
CHEBI:142556

>  <ChEBI Name>  (132) 
O-(ADP-D-ribosyl)-L-serine(2-) residue

>  <Star>  (132) 
2

>  <Definition>  (132) 
An organic anionic group obtained by deprotonation of the diphosphate OH groups of O-(ADP-D-ribosyl)-L-serine residue.

>  <SMILES>  (132) 
N1(C2=C(C(=NC=N2)N)N=C1)[C@@H]3O[C@H](COP(OP(OC[C@H]4OC(OC[C@H](N*)C(=O)*)[C@@H]([C@@H]4O)O)(=O)[O-])(=O)[O-])[C@H]([C@H]3O)O

>  <Formulae>  (132) 
C18H24N6O15P2

>  <Charge>  (132) 
-2

>  <Mass>  (132) 
626.363

>  <Monoisotopic Mass>  (132) 
626.07749

>  <Synonyms>  (132) 
O-(ADP-D-ribosyl)-L-serine residue

>  <PubMed citation Links>  (132) 
27067600

>  <PubChem Database Links>  (132) 
SID: 85342217

>  <Rhea Database Links>  (132) 
RHEA:58256
RHEA:58232

$$$$

     RDKit          2D

 48 52  0  0  0  0  0  0  0  0999 V2000
    4.7123    2.4400    0.0000 N   0  0  0  0  0  0  0  0  0  0  0  0
    5.6629    2.7488    0.0000 C   0  0  0  0  0  0  0  0  0  0  0  0
    4.4035    1.4894    0.0000 C   0  0  0  0  0  0  0  0  0  0  0  0
    4.1248    3.2485    0.0000 C   0  0  0  0  0  0  0  0  0  0  0  0
    5.6629    3.7483    0.0000 C   0  0  0  0  0  0  0  0  0  0  0  0
    6.5285    2.2491    0.0000 N   0  0  0  0  0  0  0  0  0  0  0  0
    3.4528    1.1805    0.0000 O   0  0  0  0  0  0  0  0  0  0  0  0
    4.9909    0.6807    0.0000 C   0  0  0  0  0  0  0  0  0  0  0  0
    4.7123    4.0572    0.0000 N   0  0  0  0  0  0  0  0  0  0  0  0
    6.5285    4.2480    0.0000 C   0  0  0  0  0  0  0  0  0  0  0  0
    7.3942    2.7488    0.0000 C   0  0  0  0  0  0  0  0  0  0  0  0
    3.4528    0.1810    0.0000 C   0  0  0  0  0  0  0  0  0  0  0  0
    4.4035   -0.1278    0.0000 C   0  0  0  0  0  0  0  0  0  0  0  0
    5.9904    0.6807    0.0000 O   0  0  0  0  0  0  0  0  0  0  0  0
    7.3942    3.7483    0.0000 N   0  0  0  0  0  0  0  0  0  0  0  0
    6.5285    5.2475    0.0000 N   0  0  0  0  0  0  0  0  0  0  0  0
    2.6442   -0.4065    0.0000 C   0  0  0  0  0  0  0  0  0  0  0  0
    4.7123   -1.0784    0.0000 O   0  0  0  0  0  0  0  0  0  0  0  0
    1.7311    0.0001    0.0000 O   0  0  0  0  0  0  0  0  0  0  0  0
   -1.7311   -0.0001    0.0000 O   0  0  0  0  0  0  0  0  0  0  0  0
   -2.5398   -0.5876    0.0000 C   0  0  0  0  0  0  0  0  0  0  0  0
   -3.4528   -0.1810    0.0000 C   0  0  0  0  0  0  0  0  0  0  0  0
   -3.6607    0.7966    0.0000 O   0  0  0  0  0  0  0  0  0  0  0  0
   -4.3184   -0.6807    0.0000 C   0  0  0  0  0  0  0  0  0  0  0  0
   -4.6546    0.9011    0.0000 C   0  0  0  0  0  0  0  0  0  0  0  0
   -5.0612   -0.0120    0.0000 C   0  0  0  0  0  0  0  0  0  0  0  0
   -4.4229   -1.6749    0.0000 O   0  0  0  0  0  0  0  0  0  0  0  0
   -5.1544    1.7666    0.0000 O   0  0  0  0  0  0  0  0  0  0  0  0
   -6.0389   -0.2198    0.0000 O   0  0  0  0  0  0  0  0  0  0  0  0
    0.0000    0.0000    0.0000 O   0  0  0  0  0  0  0  0  0  0  0  0
    0.8656   -1.4991    0.0000 O   0  0  0  0  0  0  0  0  0  0  0  0
   -0.8655   -1.4992    0.0000 O   0  0  0  0  0  0  0  0  0  0  0  0
   -0.8655   -0.4997    0.0000 P   0  0  0  0  0  0  0  0  0  0  0  0
   -0.8656    0.4996    0.0000 O   0  0  0  0  0  0  0  0  0  0  0  0
    0.8656   -0.4997    0.0000 P   0  0  0  0  0  0  0  0  0  0  0  0
    0.8655    0.4997    0.0000 O   0  0  0  0  0  0  0  0  0  0  0  0
   -6.9240    3.7511    0.0000 C   0  0  0  0  0  0  0  0  0  0  0  0
   -7.7895    3.2513    0.0000 C   0  0  0  0  0  0  0  0  0  0  0  0
   -7.7895    2.2517    0.0000 C   0  0  0  0  0  0  0  0  0  0  0  0
   -6.9240    1.7520    0.0000 C   0  0  0  0  0  0  0  0  0  0  0  0
   -6.0584    2.2517    0.0000 C   0  0  0  0  0  0  0  0  0  0  0  0
   -6.0584    3.2513    0.0000 C   0  0  0  0  0  0  0  0  0  0  0  0
   -8.6552    3.7511    0.0000 C   0  0  0  0  0  0  0  0  0  0  0  0
   -9.5208    3.2513    0.0000 C   0  0  0  0  0  0  0  0  0  0  0  0
  -10.3864    3.7511    0.0000 C   0  0  0  0  0  0  0  0  0  0  0  0
  -11.2519    3.2512    0.0000 O   0  0  0  0  0  0  0  0  0  0  0  0
   -9.5208    2.2518    0.0000 N   0  0  0  0  0  0  0  0  0  0  0  0
  -10.3864    4.7506    0.0000 O   0  0  0  0  0  0  0  0  0  0  0  0
  1  2  1  0
  3  1  1  1
  1  4  1  0
  2  5  2  0
  2  6  1  0
  3  7  1  0
  3  8  1  0
  4  9  2  0
  5 10  1  0
  6 11  2  0
  7 12  1  0
  8 13  1  0
  8 14  1  6
 10 15  2  0
 10 16  1  0
 12 17  1  1
 13 18  1  6
 17 19  1  0
 20 21  1  0
 22 21  1  6
 22 23  1  0
 22 24  1  0
 23 25  1  0
 24 26  1  0
 24 27  1  1
 25 28  1  0
 26 29  1  1
  5  9  1  0
 11 15  1  0
 12 13  1  0
 25 26  1  0
 19 35  1  0
 35 30  1  0
 30 33  1  0
 35 31  2  0
 33 20  1  0
 33 32  2  0
 33 34  1  0
 35 36  1  0
 37 38  2  0
 38 39  1  0
 39 40  2  0
 40 41  1  0
 41 42  2  0
 37 42  1  0
 41 28  1  0
 38 43  1  0
 44 43  1  0
 44 45  1  0
 45 46  1  0
 44 47  1  6
 45 48  2  0
V   46 *
M  END
>  <ChEBI ID>  (133) 
CHEBI:142557

>  <ChEBI Name>  (133) 
O-(ADP-D-ribosyl)-L-tyrosine(2-) residue

>  <Star>  (133) 
2

>  <Definition>  (133) 
An organic anionic group obtained by deprotonation of the diphosphate OH groups of O-(ADP-D-ribosyl)-L-tyrosine residue.

>  <SMILES>  (133) 
N1(C2=C(C(=NC=N2)N)N=C1)[C@@H]3O[C@H](COP(OP(OC[C@H]4OC(OC=5C=CC(=CC5)C[C@@H](C(*)=O)N*)[C@@H]([C@@H]4O)O)(=O)[O-])(=O)[O-])[C@H]([C@H]3O)O

>  <Formulae>  (133) 
C24H28N6O15P2

>  <Charge>  (133) 
-2

>  <Mass>  (133) 
702.459

>  <Monoisotopic Mass>  (133) 
702.10879

>  <Synonyms>  (133) 
O-(ADP-D-ribosyl)-L-tyrosine residue

>  <PubMed citation Links>  (133) 
30257210

>  <PubChem Database Links>  (133) 
SID: 85342218

>  <Rhea Database Links>  (133) 
RHEA:58260
RHEA:58236

$$$$

     RDKit          2D

 40 43  0  0  0  0  0  0  0  0999 V2000
    6.9869   -4.7061    0.0000 O   0  0  0  0  0  0  0  0  0  0  0  0
    6.1252   -5.2037    0.0000 C   0  0  0  0  0  0  0  0  0  0  0  0
    5.2633   -4.7061    0.0000 O   0  0  0  0  0  0  0  0  0  0  0  0
    6.1252   -6.1987    0.0000 C   0  0  0  0  0  0  0  0  0  0  0  0
    5.2635   -6.6963    0.0000 N   0  0  0  0  0  0  0  0  0  0  0  0
    7.8487   -5.2037    0.0000 C   0  0  0  0  0  0  0  0  0  0  0  0
   11.1822   -5.2049    0.0000 O   0  0  0  0  0  0  0  0  0  0  0  0
   17.2898   -5.0778    0.0000 O   0  0  0  0  0  0  0  0  0  0  0  0
   16.3433   -5.3852    0.0000 C   0  0  0  0  0  0  0  0  0  0  0  0
   17.8745   -5.8826    0.0000 C   0  0  0  0  0  0  0  0  0  0  0  0
   16.3433   -6.3803    0.0000 C   0  0  0  0  0  0  0  0  0  0  0  0
   17.2898   -6.6879    0.0000 C   0  0  0  0  0  0  0  0  0  0  0  0
   15.5383   -6.9652    0.0000 O   0  0  0  0  0  0  0  0  0  0  0  0
   17.5973   -7.6343    0.0000 O   0  0  0  0  0  0  0  0  0  0  0  0
   15.5383   -4.8003    0.0000 C   0  0  0  0  0  0  0  0  0  0  0  0
   22.0868   -6.7387    0.0000 N   0  0  0  0  0  0  0  0  0  0  0  0
   20.4010   -5.3852    0.0000 N   0  0  0  0  0  0  0  0  0  0  0  0
   18.8696   -5.8826    0.0000 N   0  0  0  0  0  0  0  0  0  0  0  0
   19.4546   -5.0778    0.0000 C   0  0  0  0  0  0  0  0  0  0  0  0
   20.4010   -6.3803    0.0000 C   0  0  0  0  0  0  0  0  0  0  0  0
   19.4546   -6.6879    0.0000 C   0  0  0  0  0  0  0  0  0  0  0  0
   19.2477   -7.6610    0.0000 N   0  0  0  0  0  0  0  0  0  0  0  0
   21.1403   -7.0460    0.0000 C   0  0  0  0  0  0  0  0  0  0  0  0
   20.9335   -8.0194    0.0000 N   0  0  0  0  0  0  0  0  0  0  0  0
   19.9872   -8.3270    0.0000 C   0  0  0  0  0  0  0  0  0  0  0  0
   13.7674   -3.7124    0.0000 O   0  0  0  0  0  0  0  0  0  0  0  0
   12.9059   -5.2049    0.0000 O   0  0  0  0  0  0  0  0  0  0  0  0
   14.6294   -5.2049    0.0000 O   0  0  0  0  0  0  0  0  0  0  0  0
   12.0440   -3.7124    0.0000 O   0  0  0  0  0  0  0  0  0  0  0  0
   12.0440   -4.7075    0.0000 P   0  0  0  0  0  0  0  0  0  0  0  0
   12.0440   -5.7026    0.0000 O   0  0  0  0  0  0  0  0  0  0  0  0
   13.7674   -4.7075    0.0000 P   0  0  0  0  0  0  0  0  0  0  0  0
   13.7674   -5.7026    0.0000 O   0  0  0  0  0  0  0  0  0  0  0  0
   10.3205   -4.7075    0.0000 C   0  0  0  0  0  0  0  0  0  0  0  0
    9.4588   -5.2051    0.0000 C   0  0  0  0  0  0  0  0  0  0  0  0
    8.6543   -4.6195    0.0000 O   0  0  0  0  0  0  0  0  0  0  0  0
    8.1554   -6.1503    0.0000 C   0  0  0  0  0  0  0  0  0  0  0  0
    9.1505   -6.1513    0.0000 C   0  0  0  0  0  0  0  0  0  0  0  0
    9.6150   -7.1846    0.0000 O   0  0  0  0  0  0  0  0  0  0  0  0
    7.7257   -7.1347    0.0000 O   0  0  0  0  0  0  0  0  0  0  0  0
  1  2  1  0
  2  3  2  0
  2  4  1  0
  4  5  1  0
  1  6  1  0
  7 30  1  0
  9  8  1  0
 10  8  1  0
 11  9  1  0
  9 15  1  1
 12 10  1  0
 10 18  1  1
 11 12  1  0
 11 13  1  6
 12 14  1  6
 28 15  1  0
 16 23  1  0
 17 19  2  0
 20 17  1  0
 19 18  1  0
 21 18  1  0
 20 21  2  0
 23 20  1  0
 21 22  1  0
 25 22  2  0
 23 24  2  0
 24 25  1  0
 32 26  2  0
 27 32  1  0
 27 30  1  0
 28 32  1  0
 29 30  2  0
 30 31  1  0
 32 33  1  0
  7 34  1  0
 35 34  1  6
 36  6  1  0
 37  6  1  0
 35 36  1  0
 38 37  1  0
 38 35  1  0
 38 39  1  1
 37 40  1  1
M  END
>  <ChEBI ID>  (134) 
CHEBI:142558

>  <ChEBI Name>  (134) 
C-terminal O-(ADP-D-ribosyl)-glycine(2-) residue

>  <Star>  (134) 
2

>  <Definition>  (134) 
An organic anionic group obtained by deprotonation of the diphosphate OH groups of C-terminal O-(ADP-D-ribosyl)-glycine residue.

>  <SMILES>  (134) 
O(C(=O)CN*)C1O[C@H](COP(OP(=O)(OC[C@H]2O[C@H]([C@@H]([C@@H]2O)O)N3C=NC4=C3N=CN=C4N)[O-])(=O)[O-])[C@H]([C@H]1O)O

>  <Formulae>  (134) 
C17H23N6O15P2

>  <Charge>  (134) 
-2

>  <Mass>  (134) 
613.344

>  <Monoisotopic Mass>  (134) 
613.06966

>  <Synonyms>  (134) 
C-terminal O-(ADP-D-ribosyl)-glycine residue

>  <PubChem Database Links>  (134) 
SID: 85342219

>  <Rhea Database Links>  (134) 
RHEA:58268

$$$$

     RDKit          2D

 10  9  0  0  0  0  0  0  0  0999 V2000
   -6.8445    0.2576    0.0000 C   0  0  0  0  0  0  0  0  0  0  0  0
   -5.9785    0.7576    0.0000 S   0  0  0  0  0  0  0  0  0  0  0  0
   -5.1124    0.2576    0.0000 C   0  0  0  0  0  0  0  0  0  0  0  0
   -4.2465    0.7576    0.0000 C   0  0  0  0  0  0  0  0  0  0  0  0
   -3.3804    0.2576    0.0000 C   0  0  0  0  0  0  0  0  0  0  0  0
   -2.5144    0.7576    0.0000 C   0  0  0  0  0  0  0  0  0  0  0  0
   -1.6483    0.2576    0.0000 O   0  0  0  0  0  0  0  0  0  0  0  0
   -2.5144    1.7576    0.0000 O   0  0  0  0  0  0  0  0  0  0  0  0
   -3.3804   -0.7424    0.0000 N   0  0  0  0  0  0  0  0  0  0  0  0
   -5.9785    1.7576    0.0000 C   0  0  0  0  0  0  0  0  0  0  0  0
  1  2  1  0
  2  3  1  0
  3  4  1  0
  5  4  1  0
  5  6  1  0
  6  7  1  0
  6  8  2  0
  5  9  1  1
  2 10  1  0
V    7 *
M  END
>  <ChEBI ID>  (135) 
CHEBI:142742

>  <ChEBI Name>  (135) 
S-methyl-L-methionine(1+) residue

>  <Star>  (135) 
2

>  <SMILES>  (135) 
C[S+](CC[C@@H](C(*)=O)N*)C

>  <Formulae>  (135) 
C6H12NOS

>  <Charge>  (135) 
+1

>  <Mass>  (135) 
146.232

>  <Monoisotopic Mass>  (135) 
146.06396

>  <Synonyms>  (135) 
S-methyl-L-methionine residue

>  <MetaCyc Database Links>  (135) 
Cytochrome-c-S-methyl-methionine

>  <MetaboLights Database Links>  (135) 
MTBLS2289

>  <PubChem Database Links>  (135) 
SID: 85342394

>  <Rhea Database Links>  (135) 
RHEA:60560

$$$$

     RDKit          2D

 15 14  0  0  0  0  0  0  0  0999 V2000
   11.1143   -6.2565    0.0000 C   0  0  0  0  0  0  0  0  0  0  0  0
   11.9816   -6.7609    0.0000 O   0  0  0  0  0  0  0  0  0  0  0  0
   10.2472   -6.7609    0.0000 C   0  0  0  0  0  0  0  0  0  0  0  0
   11.1143   -5.2683    0.0000 O   0  0  0  0  0  0  0  0  0  0  0  0
   10.2674   -7.7491    0.0000 N   0  0  0  0  0  0  0  0  0  0  0  0
    9.4001   -6.2565    0.0000 C   0  0  0  0  0  0  0  0  0  0  0  0
    8.5329   -6.7609    0.0000 S   0  0  0  0  0  0  0  0  0  0  0  0
    7.6625   -6.2621    0.0000 C   0  0  0  0  0  0  0  0  0  0  0  0
    6.7954   -6.7663    0.0000 C   0  0  0  0  0  0  0  0  0  0  0  0
    7.6594   -5.2590    0.0000 C   0  0  0  0  0  0  0  0  0  0  0  0
    8.5265   -4.7547    0.0000 C   0  0  0  0  0  0  0  0  0  0  0  0
    8.5234   -3.7516    0.0000 O   0  0  0  0  0  0  0  0  0  0  0  0
    9.3968   -5.2536    0.0000 O   0  0  0  0  0  0  0  0  0  0  0  0
    5.9252   -6.2675    0.0000 O   0  0  0  0  0  0  0  0  0  0  0  0
    6.7986   -7.7694    0.0000 O   0  0  0  0  0  0  0  0  0  0  0  0
  2  1  1  0
  3  1  1  0
  4  1  2  0
  3  5  1  1
  3  6  1  0
  7  6  1  0
  7  8  1  0
  8  9  1  0
  8 10  1  0
 10 11  1  0
 11 12  1  0
 11 13  2  0
  9 14  1  0
  9 15  2  0
V    2 *
M  END
>  <ChEBI ID>  (136) 
CHEBI:143134

>  <ChEBI Name>  (136) 
S-succinyl-L-cysteine(2-) residue

>  <Star>  (136) 
2

>  <Definition>  (136) 
Major species at pH 7.3

>  <SMILES>  (136) 
C(*)([C@@H](N*)CSC(C([O-])=O)CC([O-])=O)=O

>  <Formulae>  (136) 
C7H7NO5S

>  <Charge>  (136) 
-2

>  <Mass>  (136) 
217.201

>  <Monoisotopic Mass>  (136) 
217.00449

>  <Synonyms>  (136) 
S-(2-succinyl)-L-cysteine residue

>  <PubChem Database Links>  (136) 
SID: 85342780

>  <Rhea Database Links>  (136) 
RHEA:59508

>  <Last Modified>  (136) 
26 Jul 2019

$$$$

     RDKit          2D

 32 35  0  0  1  0  0  0  0  0999 V2000
   -2.6372   -0.5037    0.0000 C   0  0  0  0  0  0  0  0  0  0  0  0
   -3.5140   -0.9851    0.0000 C   0  0  0  0  0  0  0  0  0  0  0  0
   -3.5140   -2.0034    0.0000 C   0  0  0  0  0  0  0  0  0  0  0  0
   -2.6372   -2.5035    0.0000 C   0  0  0  0  0  0  0  0  0  0  0  0
   -1.7882   -2.0034    0.0000 C   0  0  0  0  0  0  0  0  0  0  0  0
   -0.9207   -2.5035    0.0000 C   0  0  0  0  0  0  0  0  0  0  0  0
   -1.7882   -0.9851    0.0000 C   0  0  0  0  0  0  0  0  0  0  0  0
   -0.9207    0.4769    0.0000 C   0  0  0  0  0  0  0  0  0  0  0  0
   -0.0339    0.9866    0.0000 C   0  0  0  0  0  0  0  0  0  0  0  0
    0.8152    0.4769    0.0000 C   0  0  0  0  0  0  0  0  0  0  0  0
    0.8152   -0.5037    0.0000 C   0  0  0  0  0  0  0  0  0  0  0  0
    1.7674   -0.8154    0.0000 C   0  0  0  0  0  0  0  0  0  0  0  0
    2.3334   -0.0228    0.0000 C   0  0  0  0  0  0  0  0  0  0  0  0
    1.7674    0.7879    0.0000 C   0  0  0  0  0  0  0  0  0  0  0  0
    0.8152    1.5052    0.0000 C   0  0  0  0  0  0  0  0  0  0  0  0
   -1.7882   -0.0040    0.0000 C   0  0  0  0  0  0  0  0  0  0  0  0
   -4.4039   -2.5262    0.0000 O   0  0  0  0  0  0  0  0  0  0  0  0
   -0.9207   -0.5037    0.0000 C   0  0  0  0  0  0  0  0  0  0  0  0
    0.9006    2.3168    0.0000 C   0  0  0  0  0  0  0  0  0  0  0  0
   -0.0339   -0.9851    0.0000 C   0  0  0  0  0  0  0  0  0  0  0  0
   -0.0339   -2.0034    0.0000 C   0  0  0  0  0  0  0  0  0  0  0  0
    3.5014    1.8163    0.0000 C   0  0  0  0  0  0  0  0  0  0  0  0
    4.3684    2.3168    0.0000 C   0  0  0  0  0  0  0  0  0  0  0  0
    5.2355    1.8163    0.0000 C   0  0  0  0  0  0  0  0  0  0  0  0
    5.2355    0.8152    0.0000 C   0  0  0  0  0  0  0  0  0  0  0  0
    2.6344    2.3168    0.0000 C   0  0  0  0  0  0  0  0  0  0  0  0
    1.7674    1.8163    0.0000 C   0  0  0  0  0  0  0  0  0  0  0  0
    6.1025    2.3168    0.0000 C   0  0  0  0  0  0  0  0  0  0  0  0
   -7.0048   -2.0258    0.0000 N   0  0  0  0  0  0  0  0  0  0  0  0
   -6.1377   -2.5264    0.0000 C   0  0  0  0  0  0  0  0  0  0  0  0
   -5.2707   -2.0258    0.0000 C   0  0  0  0  0  0  0  0  0  0  0  0
   -5.2709   -1.0246    0.0000 O   0  0  0  0  0  0  0  0  0  0  0  0
 11 10  1  0
 14 10  1  0
  9 10  1  0
 10 15  1  1
 20 11  1  0
 11 12  1  1
 18  8  1  1
  7 18  1  0
 20 18  1  0
 20 21  1  6
  5  7  1  0
  7 16  1  1
  1  7  1  0
 14 13  1  1
 27 14  1  0
  8  9  1  0
 13 12  1  0
  6 21  1  0
  4  5  1  0
  6  5  2  0
  2  1  1  0
  3  4  1  0
  3  2  1  0
  3 17  1  1
 27 19  1  6
 26 22  1  0
 23 22  1  0
 24 23  1  0
 25 24  1  0
 28 24  1  0
 26 27  1  0
 30 29  1  0
 30 31  1  0
 32 31  2  0
 17 31  1  0
M  END
>  <ChEBI ID>  (137) 
CHEBI:143135

>  <ChEBI Name>  (137) 
Glycino 3beta-cholesterol ester group

>  <Star>  (137) 
2

>  <SMILES>  (137) 
C1[C@@]2([C@]3(CC[C@]4([C@]([C@@]3(CC=C2C[C@H](C1)OC(CN*)=O)[H])(CC[C@@]4([C@H](C)CCCC(C)C)[H])[H])C)[H])C

>  <Formulae>  (137) 
C29H48NO2

>  <Charge>  (137) 
0

>  <Mass>  (137) 
442.698

>  <Monoisotopic Mass>  (137) 
442.36850

>  <Synonyms>  (137) 
C-terminal glycine 3beta-cholesterol ester residue
Gly-cholesterol ester group
glycino cholesterol ester group

>  <PubMed citation Links>  (137) 
11111088
8824192

>  <PubChem Database Links>  (137) 
SID: 85342781

>  <Rhea Database Links>  (137) 
RHEA:59504
RHEA:59580

$$$$

     RDKit          2D

 24 23  0  0  0  0  0  0  0  0999 V2000
   11.5303   -3.1646    0.0000 O   0  0  0  0  0  0  0  0  0  0  0  0
    9.8087   -4.1587    0.0000 N   0  0  0  0  0  0  0  0  0  0  0  0
    9.8087   -3.1646    0.0000 C   0  0  0  0  0  0  0  0  0  0  0  0
    8.9480   -2.6677    0.0000 C   0  0  0  0  0  0  0  0  0  0  0  0
    8.0871   -3.1646    0.0000 S   0  0  0  0  0  0  0  0  0  0  0  0
   10.6696   -2.6677    0.0000 C   0  0  0  0  0  0  0  0  0  0  0  0
   10.6696   -1.6737    0.0000 O   0  0  0  0  0  0  0  0  0  0  0  0
    9.8069   -5.1512    0.0000 C   0  0  0  0  0  0  0  0  0  0  0  0
   10.7751   -5.7437    0.0000 O   0  0  0  0  0  0  0  0  0  0  0  0
    8.9462   -5.6481    0.0000 C   0  0  0  0  0  0  0  0  0  0  0  0
    8.0853   -5.1512    0.0000 C   0  0  0  0  0  0  0  0  0  0  0  0
    7.2246   -5.6481    0.0000 C   0  0  0  0  0  0  0  0  0  0  0  0
    6.3638   -5.1512    0.0000 C   0  0  0  0  0  0  0  0  0  0  0  0
    5.5031   -5.6481    0.0000 C   0  0  0  0  0  0  0  0  0  0  0  0
    4.6422   -5.1512    0.0000 C   0  0  0  0  0  0  0  0  0  0  0  0
    3.7816   -5.6481    0.0000 C   0  0  0  0  0  0  0  0  0  0  0  0
    2.9206   -5.1512    0.0000 C   0  0  0  0  0  0  0  0  0  0  0  0
    2.0599   -5.6481    0.0000 C   0  0  0  0  0  0  0  0  0  0  0  0
    1.1990   -5.1512    0.0000 C   0  0  0  0  0  0  0  0  0  0  0  0
    0.3384   -5.6481    0.0000 C   0  0  0  0  0  0  0  0  0  0  0  0
   -0.5225   -5.1512    0.0000 C   0  0  0  0  0  0  0  0  0  0  0  0
   -1.3832   -5.6481    0.0000 C   0  0  0  0  0  0  0  0  0  0  0  0
   -2.2440   -5.1512    0.0000 C   0  0  0  0  0  0  0  0  0  0  0  0
   -3.1048   -5.6481    0.0000 C   0  0  0  0  0  0  0  0  0  0  0  0
  1  6  1  0
  3  2  1  0
  3  4  1  1
  3  6  1  0
  4  5  1  0
  6  7  2  0
  8  9  2  0
  8 10  1  0
 10 11  1  0
 11 12  1  0
 12 13  1  0
 13 14  1  0
 14 15  1  0
 15 16  1  0
 16 17  1  0
 17 18  1  0
 18 19  1  0
 19 20  1  0
 20 21  1  0
 21 22  1  0
 22 23  1  0
 23 24  1  0
  8  2  1  0
V    1 *
M  END
>  <ChEBI ID>  (138) 
CHEBI:143147

>  <ChEBI Name>  (138) 
N-palmitoyl-L-cysteine residue

>  <Star>  (138) 
2

>  <SMILES>  (138) 
*C([C@@H](NC(=O)CCCCCCCCCCCCCCC)CS)=O

>  <Formulae>  (138) 
C19H36NO2S

>  <Charge>  (138) 
0

>  <Mass>  (138) 
342.561

>  <Monoisotopic Mass>  (138) 
342.24668

>  <Synonyms>  (138) 
N-hexadecanoyl-L-cysteine residue
an N-hexadecanoyl-L-cysteine residue

>  <PubMed citation Links>  (138) 
11111088

>  <PubChem Database Links>  (138) 
SID: 85342792

>  <Rhea Database Links>  (138) 
RHEA:59528
RHEA:59580

>  <Last Modified>  (138) 
20 Aug 2019

$$$$

     RDKit          2D

 24 23  0  0  0  0  0  0  0  0999 V2000
   11.6255   -3.1908    0.0000 O   0  0  0  0  0  0  0  0  0  0  0  0
    9.8898   -4.1930    0.0000 N   0  0  0  0  0  0  0  0  0  0  0  0
    9.8898   -3.1908    0.0000 C   0  0  0  0  0  0  0  0  0  0  0  0
    9.0219   -2.6897    0.0000 C   0  0  0  0  0  0  0  0  0  0  0  0
    8.1539   -3.1908    0.0000 S   0  0  0  0  0  0  0  0  0  0  0  0
   10.7576   -2.6897    0.0000 C   0  0  0  0  0  0  0  0  0  0  0  0
   10.7576   -1.6875    0.0000 O   0  0  0  0  0  0  0  0  0  0  0  0
    7.3135   -2.6450    0.0000 C   0  0  0  0  0  0  0  0  0  0  0  0
    7.3135   -1.6698    0.0000 O   0  0  0  0  0  0  0  0  0  0  0  0
    6.4456   -3.1461    0.0000 C   0  0  0  0  0  0  0  0  0  0  0  0
    5.5776   -2.6450    0.0000 C   0  0  0  0  0  0  0  0  0  0  0  0
    4.7098   -3.1461    0.0000 C   0  0  0  0  0  0  0  0  0  0  0  0
    3.8419   -2.6450    0.0000 C   0  0  0  0  0  0  0  0  0  0  0  0
    2.9741   -3.1461    0.0000 C   0  0  0  0  0  0  0  0  0  0  0  0
    2.1061   -2.6450    0.0000 C   0  0  0  0  0  0  0  0  0  0  0  0
    1.2383   -3.1461    0.0000 C   0  0  0  0  0  0  0  0  0  0  0  0
    0.3703   -2.6450    0.0000 C   0  0  0  0  0  0  0  0  0  0  0  0
   -1.4995   -3.1461    0.0000 C   0  0  0  0  0  0  0  0  0  0  0  0
   -2.3675   -2.6450    0.0000 C   0  0  0  0  0  0  0  0  0  0  0  0
   -3.2353   -3.1461    0.0000 C   0  0  0  0  0  0  0  0  0  0  0  0
   -0.6317   -2.6450    0.0000 C   0  0  0  0  0  0  0  0  0  0  0  0
   -4.0757   -2.6003    0.0000 C   0  0  0  0  0  0  0  0  0  0  0  0
   -4.9436   -3.1014    0.0000 C   0  0  0  0  0  0  0  0  0  0  0  0
   -5.7840   -2.5555    0.0000 C   0  0  0  0  0  0  0  0  0  0  0  0
  1  6  1  0
  3  2  1  1
  3  4  1  0
  3  6  1  0
  4  5  1  0
  6  7  2  0
  8  9  2  0
  8 10  1  0
 10 11  1  0
 11 12  1  0
 12 13  1  0
 13 14  1  0
 14 15  1  0
 15 16  1  0
 16 17  1  0
 18 19  1  0
 19 20  1  0
  8  5  1  0
 17 21  2  0
 21 18  1  0
 22 23  1  0
 20 22  1  0
 23 24  1  0
V    1 *
M  END
>  <ChEBI ID>  (139) 
CHEBI:143203

>  <ChEBI Name>  (139) 
S-palmitoleoyl-L-cysteine group

>  <Star>  (139) 
2

>  <SMILES>  (139) 
*C([C@@H](N*)CSC(=O)CCCCCCC/C=C\CCCCCC)=O

>  <Formulae>  (139) 
C19H33NO2S

>  <Charge>  (139) 
0

>  <Mass>  (139) 
339.538

>  <Monoisotopic Mass>  (139) 
339.22320

>  <Synonyms>  (139) 
S-(9Z)-hexadecenoyl-L-cysteinyl group
S-(9Z-hexadecenoyl)-L-cysteinyl residue

>  <PubMed citation Links>  (139) 
22247542

>  <PubChem Database Links>  (139) 
SID: 85342848

$$$$

     RDKit          2D

 29 28  0  0  0  0  0  0  0  0999 V2000
   11.1043   -6.2508    0.0000 C   0  0  0  0  0  0  0  0  0  0  0  0
   11.9708   -6.7548    0.0000 O   0  0  0  0  0  0  0  0  0  0  0  0
   10.2377   -6.7548    0.0000 C   0  0  0  0  0  0  0  0  0  0  0  0
   11.1043   -5.2634    0.0000 O   0  0  0  0  0  0  0  0  0  0  0  0
   10.2580   -7.7420    0.0000 N   0  0  0  0  0  0  0  0  0  0  0  0
    5.9254   -6.2508    0.0000 N   0  0  0  0  0  0  0  0  0  0  0  0
    6.7921   -6.7348    0.0000 C   0  0  0  0  0  0  0  0  0  0  0  0
    9.3915   -6.2508    0.0000 C   0  0  0  0  0  0  0  0  0  0  0  0
    7.6584   -6.2508    0.0000 C   0  0  0  0  0  0  0  0  0  0  0  0
    8.5248   -6.7548    0.0000 C   0  0  0  0  0  0  0  0  0  0  0  0
    5.0648   -6.7648    0.0000 C   0  0  0  0  0  0  0  0  0  0  0  0
    4.1895   -6.2762    0.0000 C   0  0  0  0  0  0  0  0  0  0  0  0
    5.0795   -7.7667    0.0000 O   0  0  0  0  0  0  0  0  0  0  0  0
    3.3291   -6.7899    0.0000 C   0  0  0  0  0  0  0  0  0  0  0  0
    2.4539   -6.3016    0.0000 C   0  0  0  0  0  0  0  0  0  0  0  0
    1.5933   -6.8153    0.0000 C   0  0  0  0  0  0  0  0  0  0  0  0
    0.7181   -6.3269    0.0000 C   0  0  0  0  0  0  0  0  0  0  0  0
   -0.1425   -6.8407    0.0000 C   0  0  0  0  0  0  0  0  0  0  0  0
   -1.0177   -6.3523    0.0000 C   0  0  0  0  0  0  0  0  0  0  0  0
   -1.8782   -6.8661    0.0000 C   0  0  0  0  0  0  0  0  0  0  0  0
   -2.7462   -6.3650    0.0000 C   0  0  0  0  0  0  0  0  0  0  0  0
   -3.6143   -6.8661    0.0000 C   0  0  0  0  0  0  0  0  0  0  0  0
   -3.6143   -7.8684    0.0000 C   0  0  0  0  0  0  0  0  0  0  0  0
   -2.7462   -8.3695    0.0000 C   0  0  0  0  0  0  0  0  0  0  0  0
   -1.8782   -7.8684    0.0000 C   0  0  0  0  0  0  0  0  0  0  0  0
   -1.0103   -8.3695    0.0000 C   0  0  0  0  0  0  0  0  0  0  0  0
   -0.1423   -7.8684    0.0000 C   0  0  0  0  0  0  0  0  0  0  0  0
    0.7258   -8.3695    0.0000 C   0  0  0  0  0  0  0  0  0  0  0  0
    1.5938   -7.8684    0.0000 C   0  0  0  0  0  0  0  0  0  0  0  0
  2  1  1  0
  3  1  1  0
  4  1  2  0
  3  5  1  1
  3  8  1  0
  7  6  1  0
  9  7  1  0
 10  8  1  0
 10  9  1  0
  6 11  1  0
 11 12  1  0
 11 13  2  0
 12 14  1  0
 14 15  1  0
 15 16  1  0
 16 17  1  0
 17 18  1  0
 18 19  1  0
 19 20  1  0
 21 22  1  0
 20 21  1  0
 22 23  1  0
 24 25  1  0
 25 26  1  0
 26 27  1  0
 27 28  1  0
 28 29  1  0
 23 24  1  0
V    2 *
M  END
>  <ChEBI ID>  (140) 
CHEBI:143206

>  <ChEBI Name>  (140) 
N(6)-stearoyl-L-lysine residue

>  <Star>  (140) 
2

>  <SMILES>  (140) 
C(*)([C@@H](N*)CCCCNC(CCCCCCCCCCCCCCCCC)=O)=O

>  <Formulae>  (140) 
C24H46N2O2

>  <Charge>  (140) 
0

>  <Mass>  (140) 
394.635

>  <Monoisotopic Mass>  (140) 
394.35593

>  <Synonyms>  (140) 
N(6)-octadecanoyl-L-lysine residue

>  <PubMed citation Links>  (140) 
30061757

>  <PubChem Database Links>  (140) 
SID: 85342851

>  <Rhea Database Links>  (140) 
RHEA:59764

>  <Last Modified>  (140) 
10 Jul 2019

$$$$

     RDKit          2D

 21 20  0  0  0  0  0  0  0  0999 V2000
    0.4330    0.2499    0.0000 C   0  0  0  0  0  0  0  0  0  0  0  0
   -0.4330   -0.2501    0.0000 C   0  0  0  0  0  0  0  0  0  0  0  0
   -1.2990    0.2499    0.0000 C   0  0  0  0  0  0  0  0  0  0  0  0
   -2.1650   -0.2501    0.0000 C   0  0  0  0  0  0  0  0  0  0  0  0
   -3.0309    0.2499    0.0000 N   0  0  0  0  0  0  0  0  0  0  0  0
    2.1650    0.2501    0.0000 C   0  0  0  0  0  0  0  0  0  0  0  0
    2.1650    1.2501    0.0000 O   0  0  0  0  0  0  0  0  0  0  0  0
    1.2990   -0.2501    0.0000 C   0  0  0  0  0  0  0  0  0  0  0  0
    1.2990   -1.2501    0.0000 N   0  0  0  0  0  0  0  0  0  0  0  0
    3.0312   -0.2499    0.0000 O   0  0  0  0  0  0  0  0  0  0  0  0
   -3.8971   -0.2501    0.0000 C   0  0  0  0  0  0  0  0  0  0  0  0
   -4.7630    0.2499    0.0000 C   0  0  0  0  0  0  0  0  0  0  0  0
   -5.6290   -0.2501    0.0000 C   0  0  0  0  0  0  0  0  0  0  0  0
   -6.4950    0.2499    0.0000 C   0  0  0  0  0  0  0  0  0  0  0  0
   -7.3610   -0.2501    0.0000 C   0  0  0  0  0  0  0  0  0  0  0  0
   -8.2269    0.2499    0.0000 C   0  0  0  0  0  0  0  0  0  0  0  0
   -9.0931   -0.2501    0.0000 C   0  0  0  0  0  0  0  0  0  0  0  0
   -9.9591    0.2499    0.0000 C   0  0  0  0  0  0  0  0  0  0  0  0
   -3.8971   -1.2501    0.0000 O   0  0  0  0  0  0  0  0  0  0  0  0
   -9.9591    1.2499    0.0000 C   0  0  0  0  0  0  0  0  0  0  0  0
   -9.0931    1.7499    0.0000 C   0  0  0  0  0  0  0  0  0  0  0  0
 10  6  1  0
  8  6  1  0
  8  1  1  0
  2  1  1  0
  3  2  1  0
  4  3  1  0
  5  4  1  0
  6  7  2  0
  8  9  1  1
 11 12  1  0
 12 13  1  0
 13 14  1  0
 14 15  1  0
 15 16  1  0
 16 17  1  0
 17 18  1  0
  5 11  1  0
 11 19  2  0
 18 20  1  0
 20 21  1  0
V   10 *
M  END
>  <ChEBI ID>  (141) 
CHEBI:143222

>  <ChEBI Name>  (141) 
N(6)-capryl-L-lysine residue

>  <Star>  (141) 
2

>  <SMILES>  (141) 
C([C@@H](C(*)=O)N*)CCCNC(CCCCCCCCC)=O

>  <Formulae>  (141) 
C16H30N2O2

>  <Charge>  (141) 
0

>  <Mass>  (141) 
282.422

>  <Monoisotopic Mass>  (141) 
282.23073

>  <Synonyms>  (141) 
N(6)-decanoyl-L-lysine residue

>  <PubMed citation Links>  (141) 
29074776

>  <PubChem Database Links>  (141) 
SID: 85342867

>  <Rhea Database Links>  (141) 
RHEA:59800

>  <Last Modified>  (141) 
10 Jul 2019

$$$$

     RDKit          2D

 22 21  0  0  0  0  0  0  0  0999 V2000
   18.5258   -8.0867    0.0000 C   0  0  0  0  0  0  0  0  0  0  0  0
   17.6598   -7.5868    0.0000 C   0  0  0  0  0  0  0  0  0  0  0  0
   19.3917   -7.5868    0.0000 O   0  0  0  0  0  0  0  0  0  0  0  0
   18.5258   -9.0868    0.0000 O   0  0  0  0  0  0  0  0  0  0  0  0
   16.7937   -8.0867    0.0000 N   0  0  0  0  0  0  0  0  0  0  0  0
   15.9276   -7.5868    0.0000 C   0  0  0  0  0  0  0  0  0  0  0  0
   15.0617   -8.0867    0.0000 C   0  0  0  0  0  0  0  0  0  0  0  0
   14.1956   -7.5868    0.0000 C   0  0  0  0  0  0  0  0  0  0  0  0
   13.3296   -8.0867    0.0000 C   0  0  0  0  0  0  0  0  0  0  0  0
   12.4637   -7.5868    0.0000 C   0  0  0  0  0  0  0  0  0  0  0  0
   11.5976   -8.0867    0.0000 C   0  0  0  0  0  0  0  0  0  0  0  0
   10.7313   -7.5868    0.0000 C   0  0  0  0  0  0  0  0  0  0  0  0
    9.8655   -8.0867    0.0000 C   0  0  0  0  0  0  0  0  0  0  0  0
    9.8655   -9.0865    0.0000 C   0  0  0  0  0  0  0  0  0  0  0  0
   10.7313   -9.5868    0.0000 C   0  0  0  0  0  0  0  0  0  0  0  0
   11.5976   -9.0867    0.0000 C   0  0  0  0  0  0  0  0  0  0  0  0
   12.4637   -9.5868    0.0000 C   0  0  0  0  0  0  0  0  0  0  0  0
   13.3295   -9.0867    0.0000 C   0  0  0  0  0  0  0  0  0  0  0  0
   15.9276   -6.5866    0.0000 O   0  0  0  0  0  0  0  0  0  0  0  0
   14.1956   -9.5868    0.0000 C   0  0  0  0  0  0  0  0  0  0  0  0
   15.0866   -9.1328    0.0000 C   0  0  0  0  0  0  0  0  0  0  0  0
   15.9527   -9.6328    0.0000 C   0  0  0  0  0  0  0  0  0  0  0  0
  2  1  1  0
  4  1  2  0
  3  1  1  0
  2  5  1  0
  6  7  1  0
  7  8  1  0
  8  9  1  0
  9 10  1  0
 10 11  1  0
 11 12  1  0
 12 13  1  0
 13 14  1  0
 14 15  1  0
 15 16  1  0
 16 17  1  0
 17 18  1  0
  5  6  1  0
  6 19  2  0
 18 20  1  0
 20 21  1  0
 21 22  1  0
V    3 *
M  END
>  <ChEBI ID>  (142) 
CHEBI:143223

>  <ChEBI Name>  (142) 
N-hexadecanoylglycyl group

>  <Star>  (142) 
3

>  <Definition>  (142) 
A univalent carboacyl group derived from N-hexadecanoylglycine.

>  <SMILES>  (142) 
C(CNC(CCCCCCCCCCCCCCC)=O)(=O)*

>  <Formulae>  (142) 
C18H34NO2

>  <Charge>  (142) 
0

>  <Mass>  (142) 
296.469

>  <Monoisotopic Mass>  (142) 
296.25895

>  <Synonyms>  (142) 
N-hexadecanoylglycyl group
N-palmitoylglycyl group
N-terminal N-hexadecanoylglycyl residue

>  <PubMed citation Links>  (142) 
12574119

>  <PubChem Database Links>  (142) 
SID: 85342868

>  <Rhea Database Links>  (142) 
RHEA:59812

>  <Last Modified>  (142) 
03 Jun 2019

$$$$

     RDKit          2D

 19 18  0  0  1  0  0  0  0  0999 V2000
   15.9836   -6.5637    0.0000 C   0  0  0  0  0  0  0  0  0  0  0  0
   15.1135   -7.0507    0.0000 C   0  0  0  0  0  0  0  0  0  0  0  0
   14.2439   -6.5463    0.0000 C   0  0  0  0  0  0  0  0  0  0  0  0
   14.2612   -5.5372    0.0000 C   0  0  0  0  0  0  0  0  0  0  0  0
   16.8607   -7.0550    0.0000 O   0  0  0  0  0  0  0  0  0  0  0  0
   15.1135   -8.0424    0.0000 N   0  0  0  0  0  0  0  0  0  0  0  0
   16.0009   -5.5372    0.0000 O   0  0  0  0  0  0  0  0  0  0  0  0
   13.3913   -7.0334    0.0000 O   0  0  0  0  0  0  0  0  0  0  0  0
   11.7157   -6.9666    0.0000 C   0  0  0  0  0  0  0  0  0  0  0  0
   12.5462   -5.5231    0.0000 O   0  0  0  0  0  0  0  0  0  0  0  0
   10.8450   -6.4639    0.0000 C   0  0  0  0  0  0  0  0  0  0  0  0
    9.9743   -6.9666    0.0000 C   0  0  0  0  0  0  0  0  0  0  0  0
    9.1037   -6.4639    0.0000 C   0  0  0  0  0  0  0  0  0  0  0  0
    8.2331   -6.9666    0.0000 C   0  0  0  0  0  0  0  0  0  0  0  0
    7.3624   -6.4639    0.0000 C   0  0  0  0  0  0  0  0  0  0  0  0
    6.4918   -6.9666    0.0000 C   0  0  0  0  0  0  0  0  0  0  0  0
   12.5563   -6.4300    0.0000 C   0  0  0  0  0  0  0  0  0  0  0  0
    5.6211   -6.4639    0.0000 C   0  0  0  0  0  0  0  0  0  0  0  0
    4.7504   -6.9666    0.0000 C   0  0  0  0  0  0  0  0  0  0  0  0
  1  2  1  0
  3  2  1  0
  2  6  1  1
  5  1  1  0
  7  1  2  0
  8  3  1  0
  3  4  1  6
 11 12  1  0
 12 13  1  0
 13 14  1  0
 14 15  1  0
 15 16  1  0
  9 11  1  0
  9 17  1  0
 17  8  1  0
 10 17  2  0
 18 19  1  0
 16 18  1  0
V    5 *
M  END
>  <ChEBI ID>  (143) 
CHEBI:143546

>  <ChEBI Name>  (143) 
O-decanoyl-L-threonine residue

>  <Star>  (143) 
3

>  <Definition>  (143) 
An L-alpha-amino-acid residue that is an L-threonine residue in which the alcoholic hydroxy group has been acylated with a decanoyl group.

>  <SMILES>  (143) 
C([C@H]([C@H](OC(CCCCCCCCC)=O)C)N*)(*)=O

>  <Formulae>  (143) 
C14H25NO3

>  <Charge>  (143) 
0

>  <Mass>  (143) 
255.354

>  <Monoisotopic Mass>  (143) 
255.18344

>  <Synonyms>  (143) 
O-caprinoyl-L-threonine residue
O-decanoyl-L-threonine residue

>  <PubMed citation Links>  (143) 
11546772

>  <PubChem Database Links>  (143) 
SID: 85343188

>  <Last Modified>  (143) 
18 Jul 2019

$$$$

     RDKit          2D

 17 16  0  0  1  0  0  0  0  0999 V2000
   15.9939   -6.5679    0.0000 C   0  0  0  0  0  0  0  0  0  0  0  0
   15.1233   -7.0552    0.0000 C   0  0  0  0  0  0  0  0  0  0  0  0
   14.2531   -6.5505    0.0000 C   0  0  0  0  0  0  0  0  0  0  0  0
   14.2704   -5.5407    0.0000 C   0  0  0  0  0  0  0  0  0  0  0  0
   16.8716   -7.0594    0.0000 O   0  0  0  0  0  0  0  0  0  0  0  0
   15.1233   -8.0475    0.0000 N   0  0  0  0  0  0  0  0  0  0  0  0
   16.0112   -5.5407    0.0000 O   0  0  0  0  0  0  0  0  0  0  0  0
   13.4000   -7.0378    0.0000 O   0  0  0  0  0  0  0  0  0  0  0  0
   11.7233   -6.9710    0.0000 C   0  0  0  0  0  0  0  0  0  0  0  0
   12.5544   -5.5267    0.0000 O   0  0  0  0  0  0  0  0  0  0  0  0
   10.8521   -6.4680    0.0000 C   0  0  0  0  0  0  0  0  0  0  0  0
    9.9808   -6.9710    0.0000 C   0  0  0  0  0  0  0  0  0  0  0  0
    9.1097   -6.4680    0.0000 C   0  0  0  0  0  0  0  0  0  0  0  0
    8.2384   -6.9710    0.0000 C   0  0  0  0  0  0  0  0  0  0  0  0
    7.3671   -6.4680    0.0000 C   0  0  0  0  0  0  0  0  0  0  0  0
    6.4959   -6.9710    0.0000 C   0  0  0  0  0  0  0  0  0  0  0  0
   12.5645   -6.4341    0.0000 C   0  0  0  0  0  0  0  0  0  0  0  0
  1  2  1  0
  3  2  1  0
  2  6  1  1
  5  1  1  0
  7  1  2  0
  8  3  1  0
  3  4  1  6
 11 12  1  0
 12 13  1  0
 13 14  1  0
 14 15  1  0
 15 16  1  0
  9 11  1  0
  9 17  1  0
 17  8  1  0
 10 17  2  0
V    5 *
M  END
>  <ChEBI ID>  (144) 
CHEBI:143547

>  <ChEBI Name>  (144) 
O-octanoyl-L-threonine residue

>  <Star>  (144) 
3

>  <Definition>  (144) 
An L-alpha-amino-acid residue that is an L-threonine residue in which the alcoholic hydroxy group has been acylated with an octanoyl group.

>  <SMILES>  (144) 
C([C@H]([C@H](OC(CCCCCCC)=O)C)N*)(*)=O

>  <Formulae>  (144) 
C12H21NO3

>  <Charge>  (144) 
0

>  <Mass>  (144) 
227.301

>  <Monoisotopic Mass>  (144) 
227.15214

>  <Synonyms>  (144) 
O-capryloyl-L-threonine residue
O-octanoyl-L-threonine residue

>  <PubMed citation Links>  (144) 
11546772

>  <PubChem Database Links>  (144) 
SID: 85343189

>  <Rhea Database Links>  (144) 
RHEA:59968

>  <Last Modified>  (144) 
18 Jul 2019

$$$$

     RDKit          2D

 16 15  0  0  0  0  0  0  0  0999 V2000
   14.9538  -20.6546    0.0000 C   0  0  0  0  0  0  0  0  0  0  0  0
   14.0948  -21.1699    0.0000 C   0  0  0  0  0  0  0  0  0  0  0  0
   13.2357  -20.6546    0.0000 C   0  0  0  0  0  0  0  0  0  0  0  0
   12.3767  -21.1699    0.0000 C   0  0  0  0  0  0  0  0  0  0  0  0
   11.5177  -20.6546    0.0000 C   0  0  0  0  0  0  0  0  0  0  0  0
   10.6587  -21.1699    0.0000 C   0  0  0  0  0  0  0  0  0  0  0  0
    9.7996  -20.6546    0.0000 C   0  0  0  0  0  0  0  0  0  0  0  0
   14.9538  -19.6810    0.0000 O   0  0  0  0  0  0  0  0  0  0  0  0
   15.8129  -21.1699    0.0000 O   0  0  0  0  0  0  0  0  0  0  0  0
    8.9238  -21.1406    0.0000 C   0  0  0  0  0  0  0  0  0  0  0  0
   16.6804  -20.6690    0.0000 C   0  0  0  0  0  0  0  0  0  0  0  0
   17.5481  -21.1699    0.0000 C   0  0  0  0  0  0  0  0  0  0  0  0
   18.4156  -20.6690    0.0000 C   0  0  0  0  0  0  0  0  0  0  0  0
   19.2833  -21.1699    0.0000 O   0  0  0  0  0  0  0  0  0  0  0  0
   18.4156  -19.6674    0.0000 O   0  0  0  0  0  0  0  0  0  0  0  0
   17.5481  -22.1717    0.0000 N   0  0  0  0  0  0  0  0  0  0  0  0
  2  1  1  0
  9  1  1  0
  8  1  2  0
  3  2  1  0
  3  4  1  0
  5  4  1  0
  5  6  1  0
  7  6  1  0
  7 10  1  0
 12 11  1  0
 12 13  1  0
 13 14  1  0
  9 11  1  0
 13 15  2  0
 12 16  1  1
V   14 *
M  END
>  <ChEBI ID>  (145) 
CHEBI:143548

>  <ChEBI Name>  (145) 
O-octanoyl-L-serine residue

>  <Star>  (145) 
3

>  <Definition>  (145) 
An L-alpha-amino-acid residue that is a L-serine residue in which the alcoholic hydroxy group has been acylated with an octanoyl group.

>  <SMILES>  (145) 
C(CCCCCCC)(OC[C@@H](C(*)=O)N*)=O

>  <Formulae>  (145) 
C11H19NO3

>  <Charge>  (145) 
0

>  <Mass>  (145) 
213.274

>  <Monoisotopic Mass>  (145) 
213.13649

>  <Synonyms>  (145) 
O-capryloyl-L-serine residue
O-octanoyl-L-serine residue

>  <PubMed citation Links>  (145) 
18267071

>  <PubChem Database Links>  (145) 
SID: 85343190

>  <Rhea Database Links>  (145) 
RHEA:59964

>  <Last Modified>  (145) 
09 Aug 2021

$$$$

     RDKit          2D

 18 17  0  0  0  0  0  0  0  0999 V2000
   14.9505  -20.6500    0.0000 C   0  0  0  0  0  0  0  0  0  0  0  0
   14.0917  -21.1653    0.0000 C   0  0  0  0  0  0  0  0  0  0  0  0
   13.2328  -20.6500    0.0000 C   0  0  0  0  0  0  0  0  0  0  0  0
   12.3740  -21.1653    0.0000 C   0  0  0  0  0  0  0  0  0  0  0  0
   11.5153  -20.6500    0.0000 C   0  0  0  0  0  0  0  0  0  0  0  0
   10.6564  -21.1653    0.0000 C   0  0  0  0  0  0  0  0  0  0  0  0
    9.7975  -20.6500    0.0000 C   0  0  0  0  0  0  0  0  0  0  0  0
   14.9505  -19.6766    0.0000 O   0  0  0  0  0  0  0  0  0  0  0  0
   15.8094  -21.1653    0.0000 O   0  0  0  0  0  0  0  0  0  0  0  0
    8.9218  -21.1359    0.0000 C   0  0  0  0  0  0  0  0  0  0  0  0
   16.6768  -20.6645    0.0000 C   0  0  0  0  0  0  0  0  0  0  0  0
   17.5442  -21.1653    0.0000 C   0  0  0  0  0  0  0  0  0  0  0  0
   18.4115  -20.6645    0.0000 C   0  0  0  0  0  0  0  0  0  0  0  0
   19.2790  -21.1653    0.0000 O   0  0  0  0  0  0  0  0  0  0  0  0
   18.4115  -19.6630    0.0000 O   0  0  0  0  0  0  0  0  0  0  0  0
   17.5442  -22.1669    0.0000 N   0  0  0  0  0  0  0  0  0  0  0  0
    8.0543  -20.6351    0.0000 C   0  0  0  0  0  0  0  0  0  0  0  0
    7.1870  -21.1359    0.0000 C   0  0  0  0  0  0  0  0  0  0  0  0
  2  1  1  0
  9  1  1  0
  8  1  2  0
  3  2  1  0
  3  4  1  0
  5  4  1  0
  5  6  1  0
  7  6  1  0
  7 10  1  0
 12 11  1  0
 12 13  1  0
 13 14  1  0
  9 11  1  0
 13 15  2  0
 12 16  1  1
 17 18  1  0
 10 17  1  0
V   14 *
M  END
>  <ChEBI ID>  (146) 
CHEBI:143549

>  <ChEBI Name>  (146) 
O-decanoyl-L-serine residue

>  <Star>  (146) 
3

>  <Definition>  (146) 
An L-alpha-amino-acid residue that is an L-serine residue in which the alcoholic hydroxy group has been acylated with a decanoyl group.

>  <SMILES>  (146) 
C(CCCCCCCCC)(OC[C@@H](C(*)=O)N*)=O

>  <Formulae>  (146) 
C13H23NO3

>  <Charge>  (146) 
0

>  <Mass>  (146) 
241.327

>  <Monoisotopic Mass>  (146) 
241.16779

>  <Synonyms>  (146) 
O-caprinoyl-L-serine residue
O-decanoyl-L-serine residue

>  <PubMed citation Links>  (146) 
23847595

>  <PubChem Database Links>  (146) 
SID: 85343191

>  <Rhea Database Links>  (146) 
RHEA:59972

>  <Last Modified>  (146) 
09 Aug 2021

$$$$

     RDKit          2D

 24 23  0  0  0  0  0  0  0  0999 V2000
    2.4536    1.1667    0.0000 O   0  0  0  0  0  0  0  0  0  0  0  0
    2.4536    0.1667    0.0000 C   0  0  0  0  0  0  0  0  0  0  0  0
    3.3197   -0.3333    0.0000 O   0  0  0  0  0  0  0  0  0  0  0  0
    1.5878   -0.3333    0.0000 C   0  0  0  0  0  0  0  0  0  0  0  0
    0.7217    0.1667    0.0000 C   0  0  0  0  0  0  0  0  0  0  0  0
   -0.1444   -0.3333    0.0000 S   0  0  0  0  0  0  0  0  0  0  0  0
   -1.0103    0.1667    0.0000 *   0  0  0  0  0  0  0  0  0  0  0  0
    1.5878   -1.3332    0.0000 N   0  0  0  0  0  0  0  0  0  0  0  0
    0.7217   -1.8332    0.0000 C   0  0  0  0  0  0  0  0  0  0  0  0
   -0.1442   -1.3332    0.0000 C   0  0  0  0  0  0  0  0  0  0  0  0
   -1.0103   -1.8332    0.0000 C   0  0  0  0  0  0  0  0  0  0  0  0
   -1.8764   -1.3332    0.0000 C   0  0  0  0  0  0  0  0  0  0  0  0
   -2.7425   -1.8332    0.0000 C   0  0  0  0  0  0  0  0  0  0  0  0
   -3.6084   -1.3332    0.0000 C   0  0  0  0  0  0  0  0  0  0  0  0
   -4.4745   -1.8332    0.0000 C   0  0  0  0  0  0  0  0  0  0  0  0
   -5.3405   -1.3332    0.0000 C   0  0  0  0  0  0  0  0  0  0  0  0
   -6.2065   -1.8332    0.0000 C   0  0  0  0  0  0  0  0  0  0  0  0
   -7.0726   -1.3332    0.0000 C   0  0  0  0  0  0  0  0  0  0  0  0
   -7.9386   -1.8332    0.0000 C   0  0  0  0  0  0  0  0  0  0  0  0
   -8.8047   -1.3332    0.0000 C   0  0  0  0  0  0  0  0  0  0  0  0
   -9.6707   -1.8332    0.0000 C   0  0  0  0  0  0  0  0  0  0  0  0
  -10.5367   -1.3332    0.0000 C   0  0  0  0  0  0  0  0  0  0  0  0
    0.7217   -2.8332    0.0000 O   0  0  0  0  0  0  0  0  0  0  0  0
   -8.8047   -0.3332    0.0000 O   0  0  0  0  0  0  0  0  0  0  0  0
  2  1  2  0
  3  2  1  0
  4  2  1  0
  4  8  1  0
  4  5  1  1
  6  5  1  0
  6  7  1  0
  9 10  1  0
 10 11  1  0
 11 12  1  0
 12 13  1  0
 13 14  1  0
 14 15  1  0
 15 16  1  0
 16 17  1  0
 17 18  1  0
 18 19  1  0
 19 20  1  0
 20 21  1  0
 21 22  1  0
  8  9  1  0
  9 23  2  0
 20 24  1  1
V    3 *
V    7 *
M  END
>  <ChEBI ID>  (147) 
CHEBI:143561

>  <ChEBI Name>  (147) 
N-12R-hydroxymyristoyl-L-cysteine residue

>  <Star>  (147) 
2

>  <SMILES>  (147) 
O=C(*)[C@@H](NC(CCCCCCCCCC[C@@H](CC)O)=O)CS*

>  <Formulae>  (147) 
C17H31NO3S

>  <Charge>  (147) 
0

>  <Mass>  (147) 
329.500

>  <Monoisotopic Mass>  (147) 
329.20246

>  <Synonyms>  (147) 
N-(R)-12-hydroxytetradecanoyl-L-cysteine residue
an N-(12R-hydroxytetradecanoyl)-L-cysteine residue

>  <PubMed citation Links>  (147) 
19053188

>  <PubChem Database Links>  (147) 
SID: 85343203

$$$$

     RDKit          2D

 24 23  0  0  0  0  0  0  0  0999 V2000
    2.4536    1.1667    0.0000 O   0  0  0  0  0  0  0  0  0  0  0  0
    2.4536    0.1667    0.0000 C   0  0  0  0  0  0  0  0  0  0  0  0
    3.3197   -0.3333    0.0000 O   0  0  0  0  0  0  0  0  0  0  0  0
    1.5878   -0.3333    0.0000 C   0  0  0  0  0  0  0  0  0  0  0  0
    0.7217    0.1667    0.0000 C   0  0  0  0  0  0  0  0  0  0  0  0
   -0.1444   -0.3333    0.0000 S   0  0  0  0  0  0  0  0  0  0  0  0
   -1.0103    0.1667    0.0000 *   0  0  0  0  0  0  0  0  0  0  0  0
    1.5878   -1.3332    0.0000 N   0  0  0  0  0  0  0  0  0  0  0  0
    0.7217   -1.8332    0.0000 C   0  0  0  0  0  0  0  0  0  0  0  0
   -0.1442   -1.3332    0.0000 C   0  0  0  0  0  0  0  0  0  0  0  0
   -1.0103   -1.8332    0.0000 C   0  0  0  0  0  0  0  0  0  0  0  0
   -1.8764   -1.3332    0.0000 C   0  0  0  0  0  0  0  0  0  0  0  0
   -2.7425   -1.8332    0.0000 C   0  0  0  0  0  0  0  0  0  0  0  0
   -3.6084   -1.3332    0.0000 C   0  0  0  0  0  0  0  0  0  0  0  0
   -4.4745   -1.8332    0.0000 C   0  0  0  0  0  0  0  0  0  0  0  0
   -5.3405   -1.3332    0.0000 C   0  0  0  0  0  0  0  0  0  0  0  0
   -6.2065   -1.8332    0.0000 C   0  0  0  0  0  0  0  0  0  0  0  0
   -7.0726   -1.3332    0.0000 C   0  0  0  0  0  0  0  0  0  0  0  0
   -7.9386   -1.8332    0.0000 C   0  0  0  0  0  0  0  0  0  0  0  0
   -8.8047   -1.3332    0.0000 C   0  0  0  0  0  0  0  0  0  0  0  0
   -9.6707   -1.8332    0.0000 C   0  0  0  0  0  0  0  0  0  0  0  0
  -10.5367   -1.3332    0.0000 C   0  0  0  0  0  0  0  0  0  0  0  0
    0.7217   -2.8332    0.0000 O   0  0  0  0  0  0  0  0  0  0  0  0
   -8.8047   -0.3332    0.0000 O   0  0  0  0  0  0  0  0  0  0  0  0
  2  1  2  0
  3  2  1  0
  4  2  1  0
  4  8  1  0
  4  5  1  1
  6  5  1  0
  6  7  1  0
  9 10  1  0
 10 11  1  0
 11 12  1  0
 12 13  1  0
 13 14  1  0
 14 15  1  0
 15 16  1  0
 16 17  1  0
 17 18  1  0
 18 19  1  0
 19 20  1  0
 20 21  1  0
 21 22  1  0
  8  9  1  0
  9 23  2  0
 20 24  2  0
V    3 *
V    7 *
M  END
>  <ChEBI ID>  (148) 
CHEBI:143562

>  <ChEBI Name>  (148) 
N-12-oxomyristoyl-L-cysteine residue

>  <Star>  (148) 
2

>  <SMILES>  (148) 
O=C(*)[C@@H](NC(CCCCCCCCCCC(CC)=O)=O)CS*

>  <Formulae>  (148) 
C17H29NO3S

>  <Charge>  (148) 
0

>  <Mass>  (148) 
327.484

>  <Monoisotopic Mass>  (148) 
327.18681

>  <Synonyms>  (148) 
N-12-ketotetradecanoyl-L-cysteine residue
an N-(12-oxotetradecanoyl)-L-cysteine residue

>  <PubMed citation Links>  (148) 
19053188

>  <PubChem Database Links>  (148) 
SID: 85343204

$$$$

     RDKit          2D

 25 24  0  0  1  0  0  0  0  0999 V2000
   15.9634   -6.5554    0.0000 C   0  0  0  0  0  0  0  0  0  0  0  0
   15.0945   -7.0417    0.0000 C   0  0  0  0  0  0  0  0  0  0  0  0
   14.2259   -6.5380    0.0000 C   0  0  0  0  0  0  0  0  0  0  0  0
   14.2432   -5.5301    0.0000 C   0  0  0  0  0  0  0  0  0  0  0  0
   16.8394   -7.0460    0.0000 O   0  0  0  0  0  0  0  0  0  0  0  0
   15.0945   -8.0321    0.0000 N   0  0  0  0  0  0  0  0  0  0  0  0
   15.9806   -5.5301    0.0000 O   0  0  0  0  0  0  0  0  0  0  0  0
   13.3745   -7.0244    0.0000 O   0  0  0  0  0  0  0  0  0  0  0  0
   11.7009   -6.9577    0.0000 C   0  0  0  0  0  0  0  0  0  0  0  0
   12.5304   -5.5161    0.0000 O   0  0  0  0  0  0  0  0  0  0  0  0
   10.8314   -6.4557    0.0000 C   0  0  0  0  0  0  0  0  0  0  0  0
    9.9616   -6.9577    0.0000 C   0  0  0  0  0  0  0  0  0  0  0  0
    9.0922   -6.4557    0.0000 C   0  0  0  0  0  0  0  0  0  0  0  0
    8.2226   -6.9577    0.0000 C   0  0  0  0  0  0  0  0  0  0  0  0
    7.3530   -6.4557    0.0000 C   0  0  0  0  0  0  0  0  0  0  0  0
    6.4836   -6.9577    0.0000 C   0  0  0  0  0  0  0  0  0  0  0  0
   12.5405   -6.4219    0.0000 C   0  0  0  0  0  0  0  0  0  0  0  0
    5.6140   -6.4557    0.0000 C   0  0  0  0  0  0  0  0  0  0  0  0
    4.7444   -6.9577    0.0000 C   0  0  0  0  0  0  0  0  0  0  0  0
    3.8748   -6.4557    0.0000 C   0  0  0  0  0  0  0  0  0  0  0  0
    3.0054   -6.9577    0.0000 C   0  0  0  0  0  0  0  0  0  0  0  0
    3.0054   -7.9618    0.0000 C   0  0  0  0  0  0  0  0  0  0  0  0
    3.8748   -8.4638    0.0000 C   0  0  0  0  0  0  0  0  0  0  0  0
    4.7921   -8.0554    0.0000 C   0  0  0  0  0  0  0  0  0  0  0  0
    5.6617   -8.5574    0.0000 C   0  0  0  0  0  0  0  0  0  0  0  0
  1  2  1  0
  3  2  1  0
  2  6  1  1
  5  1  1  0
  7  1  2  0
  8  3  1  0
  3  4  1  6
 11 12  1  0
 12 13  1  0
 13 14  1  0
 14 15  1  0
 15 16  1  0
  9 11  1  0
  9 17  1  0
 17  8  1  0
 10 17  2  0
 18 19  1  0
 19 20  1  0
 20 21  1  0
 16 18  1  0
 22 23  1  0
 21 22  1  0
 23 24  1  0
 24 25  1  0
V    5 *
M  END
>  <ChEBI ID>  (149) 
CHEBI:143621

>  <ChEBI Name>  (149) 
O-hexadecanoyl-L-threonine residue

>  <Star>  (149) 
3

>  <Definition>  (149) 
An L-alpha-amino-acid residue that is an L-threonine residue in which the alcoholic hydroxy group has been acylated with a hexadecanoyl group.

>  <SMILES>  (149) 
C([C@H]([C@H](OC(CCCCCCCCCCCCCCC)=O)C)N*)(*)=O

>  <Formulae>  (149) 
C20H37NO3

>  <Charge>  (149) 
0

>  <Mass>  (149) 
339.513

>  <Monoisotopic Mass>  (149) 
339.27734

>  <Synonyms>  (149) 
O-hexadecanoyl-L-threonine residue
O-palmitoyl-L-threonine residue

>  <PubMed citation Links>  (149) 
6642431

>  <PubChem Database Links>  (149) 
SID: 85343263

>  <Last Modified>  (149) 
19 Jul 2019

$$$$

     RDKit          2D

 19 18  0  0  1  0  0  0  0  0999 V2000
   17.6104  -10.0146    0.0000 C   0  0  0  0  0  0  0  0  0  0  0  0
   17.6104   -9.0146    0.0000 O   0  0  0  0  0  0  0  0  0  0  0  0
   16.7443  -10.5146    0.0000 C   0  0  0  0  0  0  0  0  0  0  0  0
   16.7443  -11.5146    0.0000 N   0  0  0  0  0  0  0  0  0  0  0  0
   15.8784  -10.0146    0.0000 C   0  0  0  0  0  0  0  0  0  0  0  0
   14.1463  -10.0145    0.0000 C   0  0  0  0  0  0  0  0  0  0  0  0
   14.1463   -9.0145    0.0000 N   0  0  0  0  0  0  0  0  0  0  0  0
   13.2803  -10.5145    0.0000 O   0  0  0  0  0  0  0  0  0  0  0  0
   15.0124  -10.5146    0.0000 C   0  0  0  0  0  0  0  0  0  0  0  0
   18.4764  -10.5146    0.0000 O   0  0  0  0  0  0  0  0  0  0  0  0
   13.2803   -7.5145    0.0000 C   0  0  0  0  0  0  0  0  0  0  0  0
   12.4143   -7.0145    0.0000 O   0  0  0  0  0  0  0  0  0  0  0  0
   13.2803   -8.5145    0.0000 C   0  0  0  0  0  0  0  0  0  0  0  0
   12.4143   -9.0144    0.0000 C   0  0  0  0  0  0  0  0  0  0  0  0
   11.5482  -10.5144    0.0000 C   0  0  0  0  0  0  0  0  0  0  0  0
   10.6821  -10.0144    0.0000 O   0  0  0  0  0  0  0  0  0  0  0  0
   11.5482  -11.5145    0.0000 O   0  0  0  0  0  0  0  0  0  0  0  0
   12.4143  -10.0145    0.0000 C   0  0  0  0  0  0  0  0  0  0  0  0
   14.1463   -7.0144    0.0000 O   0  0  0  0  0  0  0  0  0  0  0  0
  1 10  1  0
  2  1  2  0
  3  1  1  0
  3  4  1  1
  3  5  1  0
  7  6  1  0
  8  6  2  0
  9  6  1  0
  5  9  1  0
 11 19  2  0
 12 11  1  0
 13 11  1  0
 13 14  1  1
 16 15  2  0
 17 15  1  0
 18 15  1  0
 14 18  1  0
 13  7  1  0
V   10 *
M  END
>  <ChEBI ID>  (150) 
CHEBI:143622

>  <ChEBI Name>  (150) 
gamma-L-glutamyl-L-glutamate(2-) residue

>  <Star>  (150) 
2

>  <SMILES>  (150) 
C(*)(=O)[C@@H](N*)CCC(N[C@H](C(=O)[O-])CCC(=O)[O-])=O

>  <Formulae>  (150) 
C10H12N2O6

>  <Charge>  (150) 
-2

>  <Mass>  (150) 
256.212

>  <Monoisotopic Mass>  (150) 
256.06954

>  <Synonyms>  (150) 
gamma-L-glutamyl-L-glutamate residue

>  <PubMed citation Links>  (150) 
1720781

>  <PubChem Database Links>  (150) 
SID: 85343264

>  <Rhea Database Links>  (150) 
RHEA:60152
RHEA:60144

$$$$

     RDKit          2D

 28 27  0  1  1  0  0  0  0  0999 V2000
   17.6104  -10.0146    0.0000 C   0  0  0  0  0  0  0  0  0  0  0  0
   17.6104   -9.0146    0.0000 O   0  0  0  0  0  0  0  0  0  0  0  0
   16.7443  -10.5146    0.0000 C   0  0  0  0  0  0  0  0  0  0  0  0
   16.7443  -11.5146    0.0000 N   0  0  0  0  0  0  0  0  0  0  0  0
   15.8784  -10.0146    0.0000 C   0  0  0  0  0  0  0  0  0  0  0  0
   14.1463  -10.0145    0.0000 C   0  0  0  0  0  0  0  0  0  0  0  0
   14.1463   -9.0145    0.0000 N   0  0  0  0  0  0  0  0  0  0  0  0
   13.2803  -10.5145    0.0000 O   0  0  0  0  0  0  0  0  0  0  0  0
   15.0124  -10.5146    0.0000 C   0  0  0  0  0  0  0  0  0  0  0  0
   18.4764  -10.5146    0.0000 O   0  0  0  0  0  0  0  0  0  0  0  0
   13.2803   -7.5145    0.0000 C   0  0  0  0  0  0  0  0  0  0  0  0
   12.4143   -7.0146    0.0000 N   0  0  0  0  0  0  0  0  0  0  0  0
   13.2803   -8.5145    0.0000 C   0  0  0  0  0  0  0  0  0  0  0  0
   12.4143   -9.0144    0.0000 C   0  0  0  0  0  0  0  0  0  0  0  0
   11.5482  -10.5144    0.0000 C   0  0  0  0  0  0  0  0  0  0  0  0
   10.6821  -10.0144    0.0000 O   0  0  0  0  0  0  0  0  0  0  0  0
   11.5482  -11.5145    0.0000 O   0  0  0  0  0  0  0  0  0  0  0  0
   12.4143  -10.0145    0.0000 C   0  0  0  0  0  0  0  0  0  0  0  0
   14.1463   -7.0144    0.0000 O   0  0  0  0  0  0  0  0  0  0  0  0
   11.5483   -5.5146    0.0000 C   0  0  0  0  0  0  0  0  0  0  0  0
   11.5483   -4.5146    0.0000 O   0  0  0  0  0  0  0  0  0  0  0  0
   12.4143   -6.0146    0.0000 C   0  0  0  0  0  0  0  0  0  0  0  0
   13.2803   -5.5146    0.0000 C   0  0  0  0  0  0  0  0  0  0  0  0
   15.0124   -5.5145    0.0000 C   0  0  0  0  0  0  0  0  0  0  0  0
   15.0124   -4.5145    0.0000 O   0  0  0  0  0  0  0  0  0  0  0  0
   15.8784   -6.0144    0.0000 O   0  0  0  0  0  0  0  0  0  0  0  0
   14.1463   -6.0146    0.0000 C   0  0  0  0  0  0  0  0  0  0  0  0
   10.6822   -6.0146    0.0000 O   0  0  0  0  0  0  0  0  0  0  0  0
  1 10  1  0
  2  1  2  0
  3  1  1  0
  3  4  1  1
  3  5  1  0
  7  6  1  0
  8  6  2  0
  9  6  1  0
  5  9  1  0
 11 19  2  0
 12 11  1  0
 13 11  1  0
 13 14  1  1
 16 15  2  0
 17 15  1  0
 18 15  1  0
 14 18  1  0
 13  7  1  0
 20 28  2  0
 21 20  1  0
 22 20  1  0
 22 23  1  6
 25 24  1  0
 26 24  2  0
 27 24  1  0
 23 27  1  0
 22 12  1  0
V   10 *
M  STY  1   1 SRU
M  SLB  1   1   1
M  SCN  1   1 HT 
M  SAL   1  9  28  27  26  25  24  23  22  20  12
M  SBL   1  2  11  20
M  SDI   1  4   13.4968   -6.8895   12.1978   -7.6395
M  SDI   1  4   10.8988   -5.3896   12.1978   -4.6396
M  SMT   1 n
M  END
>  <ChEBI ID>  (151) 
CHEBI:143623

>  <ChEBI Name>  (151) 
poly(L-glutamyl)-L-gamma-glutamyl-L-glutamate residue

>  <Star>  (151) 
2

>  <Definition>  (151) 
Major species at pH 7.3

>  <Formulae>  (151) 
(C5H6NO3)n.C10H12N2O6

>  <Charge>  (151) 
-3

>  <Mass>  (151) 
0.0

>  <Monoisotopic Mass>  (151) 
0.0

>  <Synonyms>  (151) 
(L-glutamyl)n-gamma-L-glutamyl-L-glutamate residue

>  <PubMed citation Links>  (151) 
1720781

>  <PubChem Database Links>  (151) 
SID: 85343265

>  <Rhea Database Links>  (151) 
RHEA:60004
RHEA:60148

>  <Last Modified>  (151) 
25 Oct 2021

$$$$

     RDKit          2D

 30 30  0  0  0  0  0  0  0  0999 V2000
    0.3590   15.1812    0.0000 C   0  0  0  0  0  0  0  0  0  0  0  0
   -0.2353   14.3632    0.0000 C   0  0  0  0  0  0  0  0  0  0  0  0
    0.3590   13.5453    0.0000 C   0  0  0  0  0  0  0  0  0  0  0  0
    0.0207   12.7601    0.0000 O   0  0  0  0  0  0  0  0  0  0  0  0
    1.3206   14.8687    0.0000 C   0  0  0  0  0  0  0  0  0  0  0  0
    2.1961   15.3742    0.0000 C   0  0  0  0  0  0  0  0  0  0  0  0
    3.0717   14.8687    0.0000 C   0  0  0  0  0  0  0  0  0  0  0  0
    4.0829   14.8687    0.0000 C   0  0  0  0  0  0  0  0  0  0  0  0
    4.9585   15.3742    0.0000 C   0  0  0  0  0  0  0  0  0  0  0  0
    5.8340   14.8687    0.0000 C   0  0  0  0  0  0  0  0  0  0  0  0
    6.7096   15.3742    0.0000 C   0  0  0  0  0  0  0  0  0  0  0  0
    8.4610   15.3742    0.0000 O   0  0  0  0  0  0  0  0  0  0  0  0
    7.5853   14.8687    0.0000 C   0  0  0  0  0  0  0  0  0  0  0  0
    7.5853   13.8577    0.0000 O   0  0  0  0  0  0  0  0  0  0  0  0
    1.3206   13.8577    0.0000 C   0  0  0  0  0  0  0  0  0  0  0  0
    2.1961   13.3523    0.0000 C   0  0  0  0  0  0  0  0  0  0  0  0
    3.0717   13.8577    0.0000 C   0  0  0  0  0  0  0  0  0  0  0  0
    3.9474   13.3523    0.0000 C   0  0  0  0  0  0  0  0  0  0  0  0
    4.8230   13.8577    0.0000 C   0  0  0  0  0  0  0  0  0  0  0  0
    5.6987   13.3523    0.0000 C   0  0  0  0  0  0  0  0  0  0  0  0
    6.5744   13.8577    0.0000 C   0  0  0  0  0  0  0  0  0  0  0  0
    7.4500   13.3523    0.0000 C   0  0  0  0  0  0  0  0  0  0  0  0
    8.3255   13.8577    0.0000 C   0  0  0  0  0  0  0  0  0  0  0  0
   -2.3424   16.9291    0.0000 C   0  0  0  0  0  0  0  0  0  0  0  0
   -1.3327   16.8762    0.0000 C   0  0  0  0  0  0  0  0  0  0  0  0
   -0.7821   17.7241    0.0000 N   0  0  0  0  0  0  0  0  0  0  0  0
   -0.8739   15.9753    0.0000 C   0  0  0  0  0  0  0  0  0  0  0  0
    0.1373   15.9753    0.0000 S   0  0  0  0  0  0  0  0  0  0  0  0
   -2.8932   16.0811    0.0000 O   0  0  0  0  0  0  0  0  0  0  0  0
   -2.8014   17.8300    0.0000 O   0  0  0  0  0  0  0  0  0  0  0  0
  1  2  1  0
  1  5  1  0
  2  3  1  0
  3 15  1  0
 15  5  1  0
  3  4  2  0
  5  6  1  6
  6  7  1  0
  7  8  2  0
  8  9  1  0
  9 10  1  0
 10 11  1  0
 11 13  1  0
 13 12  1  0
 13 14  2  0
 15 16  2  0
 16 17  1  0
 17 18  2  0
 18 19  1  0
 19 20  1  0
 20 21  1  0
 21 22  1  0
 22 23  1  0
 24 29  2  0
 30 24  1  0
 25 24  1  0
 25 26  1  1
 25 27  1  0
 27 28  1  0
 28  1  1  0
V   30 *
M  END
>  <ChEBI ID>  (152) 
CHEBI:143698

>  <ChEBI Name>  (152) 
S-(15-deoxy-Delta(12,14)-prostaglandin J2-9-yl)cysteine residue(1-)

>  <Star>  (152) 
2

>  <SMILES>  (152) 
C1(CC(/C(/[C@H]1C/C=C\CCCC([O-])=O)=C/C=C/CCCCC)=O)SC[C@@H](C(=O)*)N*

>  <Formulae>  (152) 
C23H32NO4S

>  <Charge>  (152) 
-1

>  <Mass>  (152) 
418.571

>  <Monoisotopic Mass>  (152) 
418.20520

>  <Synonyms>  (152) 
S-(15-deoxy-Delta(12,14)-PGJ2)-cysteine residue(1-)
S-(15-deoxy-Delta(12,14)-prostaglandin J2-9-yl)cysteine residue

>  <PubMed citation Links>  (152) 
11466314

>  <PubChem Database Links>  (152) 
SID: 85343339

$$$$

     RDKit          2D

 23 22  0  0  1  0  0  0  0  0999 V2000
   10.5156   -5.7759    0.0000 C   0  0  0  0  0  0  0  0  0  0  0  0
    9.6486   -6.2763    0.0000 C   0  0  0  0  0  0  0  0  0  0  0  0
   18.3181   -6.2763    0.0000 C   0  0  0  0  0  0  0  0  0  0  0  0
   16.5842   -6.2763    0.0000 S   0  0  0  0  0  0  0  0  0  0  0  0
   15.7172   -5.7759    0.0000 C   0  0  0  0  0  0  0  0  0  0  0  0
   20.0521   -6.2763    0.0000 O   0  0  0  0  0  0  0  0  0  0  0  0
   14.8503   -6.2763    0.0000 C   0  0  0  0  0  0  0  0  0  0  0  0
   13.9834   -5.7759    0.0000 C   0  0  0  0  0  0  0  0  0  0  0  0
   13.1165   -6.2763    0.0000 C   0  0  0  0  0  0  0  0  0  0  0  0
   12.2493   -5.7759    0.0000 C   0  0  0  0  0  0  0  0  0  0  0  0
   11.3826   -6.2763    0.0000 C   0  0  0  0  0  0  0  0  0  0  0  0
    8.7816   -5.7759    0.0000 C   0  0  0  0  0  0  0  0  0  0  0  0
    7.9147   -6.2763    0.0000 C   0  0  0  0  0  0  0  0  0  0  0  0
    7.0479   -5.7759    0.0000 C   0  0  0  0  0  0  0  0  0  0  0  0
    6.1809   -6.2763    0.0000 C   0  0  0  0  0  0  0  0  0  0  0  0
   17.4512   -5.7759    0.0000 C   0  0  0  0  0  0  0  0  0  0  0  0
   19.1849   -5.7759    0.0000 C   0  0  0  0  0  0  0  0  0  0  0  0
   19.1849   -4.7749    0.0000 O   0  0  0  0  0  0  0  0  0  0  0  0
   13.9833   -4.7749    0.0000 C   0  0  0  0  0  0  0  0  0  0  0  0
   10.5156   -4.7745    0.0000 C   0  0  0  0  0  0  0  0  0  0  0  0
    7.0479   -4.7745    0.0000 C   0  0  0  0  0  0  0  0  0  0  0  0
   18.3181   -7.2775    0.0000 N   0  0  0  0  0  0  0  0  0  0  0  0
    6.1809   -4.2740    0.0000 O   0  0  0  0  0  0  0  0  0  0  0  0
  1 20  1  0
  1  2  1  0
  4  5  1  0
  5  7  1  0
  7  8  2  0
  8 19  1  0
  8  9  1  0
  9 10  1  0
 11  1  2  0
 10 11  1  0
  2 12  1  0
 12 13  1  0
 13 14  2  0
 14 21  1  0
 14 15  1  0
 18 17  2  0
  3 17  1  0
  3 22  1  1
  3 16  1  0
  6 17  1  0
  4 16  1  0
 21 23  1  0
V    6 *
M  END
>  <ChEBI ID>  (153) 
CHEBI:143699

>  <ChEBI Name>  (153) 
S-(12-hydroxyfarnesyl)-L-cysteine residue

>  <Star>  (153) 
2

>  <SMILES>  (153) 
C(\C)(/CC/C=C(\CO)/C)=C\CC\C(=C\CSC[C@@H](C(=O)*)N*)\C

>  <Formulae>  (153) 
C18H29NO2S

>  <Charge>  (153) 
0

>  <Mass>  (153) 
323.495

>  <Monoisotopic Mass>  (153) 
323.19190

>  <Synonyms>  (153) 
S-12-hydroxyfarnesyl-L-cysteine residue

>  <PubMed citation Links>  (153) 
17790543

>  <PubChem Database Links>  (153) 
SID: 85343340

$$$$

     RDKit          2D

 52 51  0  0  1  0  0  0  0  0999 V2000
   18.0549  -16.1010    0.0000 C   0  0  0  0  0  0  0  0  0  0  0  0
   17.1899  -15.6016    0.0000 C   0  0  0  0  0  0  0  0  0  0  0  0
   18.9198  -15.6016    0.0000 C   0  0  0  0  0  0  0  0  0  0  0  0
    5.0806  -17.5993    0.0000 C   0  0  0  0  0  0  0  0  0  0  0  0
    8.5404  -17.5993    0.0000 C   0  0  0  0  0  0  0  0  0  0  0  0
    5.9456  -17.0999    0.0000 C   0  0  0  0  0  0  0  0  0  0  0  0
    9.4054  -17.0999    0.0000 C   0  0  0  0  0  0  0  0  0  0  0  0
    6.8106  -17.5993    0.0000 C   0  0  0  0  0  0  0  0  0  0  0  0
    7.6754  -17.0999    0.0000 C   0  0  0  0  0  0  0  0  0  0  0  0
   10.2703  -17.5993    0.0000 C   0  0  0  0  0  0  0  0  0  0  0  0
    5.0806  -18.5979    0.0000 C   0  0  0  0  0  0  0  0  0  0  0  0
    4.2156  -17.0999    0.0000 C   0  0  0  0  0  0  0  0  0  0  0  0
    8.5404  -18.5979    0.0000 C   0  0  0  0  0  0  0  0  0  0  0  0
   18.0549  -17.0999    0.0000 O   0  0  0  0  0  0  0  0  0  0  0  0
   12.0003  -17.5993    0.0000 C   0  0  0  0  0  0  0  0  0  0  0  0
   15.4600  -17.5993    0.0000 C   0  0  0  0  0  0  0  0  0  0  0  0
   12.8651  -17.0999    0.0000 C   0  0  0  0  0  0  0  0  0  0  0  0
   16.3250  -17.0999    0.0000 C   0  0  0  0  0  0  0  0  0  0  0  0
   13.7301  -17.5993    0.0000 C   0  0  0  0  0  0  0  0  0  0  0  0
   14.5951  -17.0999    0.0000 C   0  0  0  0  0  0  0  0  0  0  0  0
   17.1899  -17.5993    0.0000 C   0  0  0  0  0  0  0  0  0  0  0  0
   12.0003  -18.5979    0.0000 C   0  0  0  0  0  0  0  0  0  0  0  0
   11.1353  -17.0999    0.0000 C   0  0  0  0  0  0  0  0  0  0  0  0
   15.4600  -18.5979    0.0000 C   0  0  0  0  0  0  0  0  0  0  0  0
   18.9192  -14.6088    0.0000 S   0  0  0  0  0  0  0  0  0  0  0  0
   17.1863  -14.6088    0.0000 O   0  0  0  0  0  0  0  0  0  0  0  0
   16.3214  -14.1095    0.0000 C   0  0  0  0  0  0  0  0  0  0  0  0
   16.3176  -13.1167    0.0000 C   0  0  0  0  0  0  0  0  0  0  0  0
    5.0732  -12.6173    0.0000 C   0  0  0  0  0  0  0  0  0  0  0  0
    8.5332  -12.6173    0.0000 C   0  0  0  0  0  0  0  0  0  0  0  0
    5.9382  -13.1167    0.0000 C   0  0  0  0  0  0  0  0  0  0  0  0
    9.3979  -13.1167    0.0000 C   0  0  0  0  0  0  0  0  0  0  0  0
    6.8031  -12.6173    0.0000 C   0  0  0  0  0  0  0  0  0  0  0  0
    7.6681  -13.1167    0.0000 C   0  0  0  0  0  0  0  0  0  0  0  0
   10.2630  -12.6173    0.0000 C   0  0  0  0  0  0  0  0  0  0  0  0
    5.0732  -11.6186    0.0000 C   0  0  0  0  0  0  0  0  0  0  0  0
    4.2082  -13.1167    0.0000 C   0  0  0  0  0  0  0  0  0  0  0  0
    8.5332  -11.6186    0.0000 C   0  0  0  0  0  0  0  0  0  0  0  0
   11.9928  -12.6173    0.0000 C   0  0  0  0  0  0  0  0  0  0  0  0
   15.4527  -12.6173    0.0000 C   0  0  0  0  0  0  0  0  0  0  0  0
   12.8577  -13.1167    0.0000 C   0  0  0  0  0  0  0  0  0  0  0  0
   13.7229  -12.6173    0.0000 C   0  0  0  0  0  0  0  0  0  0  0  0
   14.5877  -13.1167    0.0000 C   0  0  0  0  0  0  0  0  0  0  0  0
   11.9928  -11.6186    0.0000 C   0  0  0  0  0  0  0  0  0  0  0  0
   11.1279  -13.1167    0.0000 C   0  0  0  0  0  0  0  0  0  0  0  0
   15.4527  -11.6186    0.0000 C   0  0  0  0  0  0  0  0  0  0  0  0
   21.5140  -14.1095    0.0000 C   0  0  0  0  0  0  0  0  0  0  0  0
   20.6490  -14.6089    0.0000 C   0  0  0  0  0  0  0  0  0  0  0  0
   20.6490  -15.6077    0.0000 N   0  0  0  0  0  0  0  0  0  0  0  0
   19.7842  -14.1094    0.0000 C   0  0  0  0  0  0  0  0  0  0  0  0
   21.5140  -13.1106    0.0000 O   0  0  0  0  0  0  0  0  0  0  0  0
   22.3790  -14.6089    0.0000 O   0  0  0  0  0  0  0  0  0  0  0  0
  1 14  1  0
  1  2  1  1
  1  3  1  0
  6  4  1  0
 11  4  1  0
 12  4  1  0
  9  5  1  0
  7  5  1  0
  5 13  1  6
  8  6  1  0
 10  7  1  0
  9  8  1  0
 17 15  1  0
 15 22  1  6
 23 15  1  0
 20 16  1  0
 18 16  1  0
 16 24  1  6
 19 17  1  0
 21 18  1  0
 20 19  1  0
 14 21  1  0
 10 23  1  0
  3 25  1  0
  2 26  1  0
 26 27  1  0
 27 28  1  0
 31 29  1  0
 36 29  1  0
 37 29  1  0
 34 30  1  0
 32 30  1  0
 30 38  1  1
 33 31  1  0
 35 32  1  0
 34 33  1  0
 41 39  1  0
 39 44  1  1
 45 39  1  0
 43 40  1  0
 28 40  1  0
 40 46  1  1
 42 41  1  0
 43 42  1  0
 35 45  1  0
 47 51  2  0
 52 47  1  0
 48 47  1  0
 48 49  1  1
 48 50  1  0
 50 25  1  0
V   52 *
M  END
>  <ChEBI ID>  (154) 
CHEBI:143704

>  <ChEBI Name>  (154) 
S-(diphytanylglyceryl)-L-cysteine residue

>  <Star>  (154) 
2

>  <SMILES>  (154) 
[C@H](OCC[C@@H](CCC[C@H](C)CCC[C@@H](CCCC(C)C)C)C)(COCC[C@@H](CCC[C@H](C)CCC[C@@H](CCCC(C)C)C)C)CSC[C@@H](C(=O)*)N*

>  <Formulae>  (154) 
C46H91NO3S

>  <Charge>  (154) 
0

>  <Mass>  (154) 
738.287

>  <Monoisotopic Mass>  (154) 
737.67197

>  <Synonyms>  (154) 
S-(2,3-diphytanyl-sn-glyceryl)-L-cysteine residue
S-archaeol-L-cysteine residue

>  <PubMed citation Links>  (154) 
7797461

>  <PubChem Database Links>  (154) 
SID: 85343345

$$$$

     RDKit          2D

 87 91  0  0  1  0  0  0  0  0999 V2000
    7.5826   -4.2747    0.0000 C   0  0  0  0  0  0  0  0  0  0  0  0
    7.5832   -3.2736    0.0000 C   0  0  0  0  0  0  0  0  0  0  0  0
    6.7160   -2.7722    0.0000 C   0  0  0  0  0  0  0  0  0  0  0  0
    5.8487   -3.2724    0.0000 C   0  0  0  0  0  0  0  0  0  0  0  0
    5.8481   -4.2740    0.0000 C   0  0  0  0  0  0  0  0  0  0  0  0
    6.7152   -4.7752    0.0000 C   0  0  0  0  0  0  0  0  0  0  0  0
    8.4499   -4.7758    0.0000 O   0  0  0  0  0  0  0  0  0  0  0  0
    6.7146   -5.7763    0.0000 O   0  0  0  0  0  0  0  0  0  0  0  0
    4.9806   -4.7741    0.0000 O   0  0  0  0  0  0  0  0  0  0  0  0
    6.7169   -1.7705    0.0000 O   0  0  0  0  0  0  0  0  0  0  0  0
    8.4507   -2.7730    0.0000 O   0  0  0  0  0  0  0  0  0  0  0  0
    4.9813   -2.7711    0.0000 O   0  0  0  0  0  0  0  0  0  0  0  0
    9.9521   -5.6430    0.0000 C   0  0  0  0  0  0  0  0  0  0  0  0
    8.9506   -5.6430    0.0000 C   0  0  0  0  0  0  0  0  0  0  0  0
    8.4499   -6.5104    0.0000 O   0  0  0  0  0  0  0  0  0  0  0  0
   10.4528   -6.5104    0.0000 C   0  0  0  0  0  0  0  0  0  0  0  0
    8.9506   -7.3777    0.0000 C   0  0  0  0  0  0  0  0  0  0  0  0
    9.9521   -7.3777    0.0000 C   0  0  0  0  0  0  0  0  0  0  0  0
   10.4528   -4.7758    0.0000 N   0  0  0  0  0  0  0  0  0  0  0  0
   11.4543   -6.5104    0.0000 O   0  0  0  0  0  0  0  0  0  0  0  0
   10.4528   -8.2449    0.0000 O   0  0  0  0  0  0  0  0  0  0  0  0
    8.4499   -8.2449    0.0000 C   0  0  0  0  0  0  0  0  0  0  0  0
    8.9506   -9.1123    0.0000 O   0  0  0  0  0  0  0  0  0  0  0  0
    7.5842   -1.2699    0.0000 R#  0  0  0  0  0  0  0  0  0  0  0  0
   10.4529   -9.2463    0.0000 C   0  0  0  0  0  0  0  0  0  0  0  0
   11.3202   -9.7470    0.0000 C   0  0  0  0  0  0  0  0  0  0  0  0
    9.5855   -9.7472    0.0000 O   0  0  0  0  0  0  0  0  0  0  0  0
   11.3202  -10.7487    0.0000 C   0  0  0  0  0  0  0  0  0  0  0  0
    9.5855  -10.7488    0.0000 C   0  0  0  0  0  0  0  0  0  0  0  0
   10.4528  -11.2495    0.0000 C   0  0  0  0  0  0  0  0  0  0  0  0
   12.1874   -9.2464    0.0000 O   0  0  0  0  0  0  0  0  0  0  0  0
   12.1874  -11.2494    0.0000 O   0  0  0  0  0  0  0  0  0  0  0  0
   10.4528  -12.2510    0.0000 O   0  0  0  0  0  0  0  0  0  0  0  0
    8.7181  -11.2495    0.0000 C   0  0  0  0  0  0  0  0  0  0  0  0
    8.7182  -12.2509    0.0000 O   0  0  0  0  0  0  0  0  0  0  0  0
    8.2175  -13.1181    0.0000 C   0  0  0  0  0  0  0  0  0  0  0  0
    8.7184  -13.9854    0.0000 C   0  0  0  0  0  0  0  0  0  0  0  0
    7.2160  -13.1183    0.0000 O   0  0  0  0  0  0  0  0  0  0  0  0
    8.2174  -14.8529    0.0000 C   0  0  0  0  0  0  0  0  0  0  0  0
    6.7153  -13.9856    0.0000 C   0  0  0  0  0  0  0  0  0  0  0  0
    7.2159  -14.8529    0.0000 C   0  0  0  0  0  0  0  0  0  0  0  0
    9.7197  -13.9854    0.0000 O   0  0  0  0  0  0  0  0  0  0  0  0
    8.7181  -15.7201    0.0000 O   0  0  0  0  0  0  0  0  0  0  0  0
    6.7152  -15.7201    0.0000 O   0  0  0  0  0  0  0  0  0  0  0  0
    5.7137  -13.9856    0.0000 C   0  0  0  0  0  0  0  0  0  0  0  0
    5.2131  -14.8528    0.0000 O   0  0  0  0  0  0  0  0  0  0  0  0
   10.5868  -14.4862    0.0000 C   0  0  0  0  0  0  0  0  0  0  0  0
   11.4542  -13.9853    0.0000 C   0  0  0  0  0  0  0  0  0  0  0  0
   10.5871  -15.4878    0.0000 O   0  0  0  0  0  0  0  0  0  0  0  0
   12.3215  -14.4863    0.0000 C   0  0  0  0  0  0  0  0  0  0  0  0
   11.4543  -15.9885    0.0000 C   0  0  0  0  0  0  0  0  0  0  0  0
   12.3216  -15.4877    0.0000 C   0  0  0  0  0  0  0  0  0  0  0  0
   11.4542  -12.9841    0.0000 O   0  0  0  0  0  0  0  0  0  0  0  0
   13.1889  -13.9856    0.0000 O   0  0  0  0  0  0  0  0  0  0  0  0
   13.1889  -15.9885    0.0000 O   0  0  0  0  0  0  0  0  0  0  0  0
   11.4543  -16.9900    0.0000 C   0  0  0  0  0  0  0  0  0  0  0  0
   12.3215  -17.4908    0.0000 O   0  0  0  0  0  0  0  0  0  0  0  0
   12.7761  -18.3830    0.0000 P   0  0  0  0  0  0  0  0  0  0  0  0
   13.1315  -19.1798    0.0000 O   0  0  0  0  0  0  0  0  0  0  0  0
   11.8636  -18.6936    0.0000 O   0  0  0  0  0  0  0  0  0  0  0  0
   13.6911  -17.9757    0.0000 O   0  0  0  0  0  0  0  0  0  0  0  0
   14.5583  -18.4765    0.0000 C   0  0  0  0  0  0  0  0  0  0  0  0
   15.4258  -17.9757    0.0000 C   0  0  0  0  0  0  0  0  0  0  0  0
   16.2930  -18.4765    0.0000 N   0  0  0  0  0  0  0  0  0  0  0  0
    4.2116  -14.8528    0.0000 R#  0  0  0  0  0  0  0  0  0  0  0  0
   12.3215  -12.4833    0.0000 R#  0  0  0  0  0  0  0  0  0  0  0  0
   13.1023   -9.6538    0.0000 R#  0  0  0  0  0  0  0  0  0  0  0  0
   13.1400  -10.9400    0.0000 R#  0  0  0  0  0  0  0  0  0  0  0  0
    9.5767  -12.7964    0.0000 R#  0  0  0  0  0  0  0  0  0  0  0  0
    9.3165   -3.2765    0.0000 P   0  0  0  0  0  0  0  0  0  0  0  0
   10.1854   -2.7784    0.0000 O   0  0  0  0  0  0  0  0  0  0  0  0
    9.3134   -4.2779    0.0000 O   0  0  0  0  0  0  0  0  0  0  0  0
    9.3165   -2.2751    0.0000 O   0  0  0  0  0  0  0  0  0  0  0  0
   11.0512   -3.2818    0.0000 C   0  0  0  0  0  0  0  0  0  0  0  0
   11.9200   -2.7838    0.0000 C   0  0  0  0  0  0  0  0  0  0  0  0
   12.7856   -3.2872    0.0000 C   0  0  0  0  0  0  0  0  0  0  0  0
   13.6547   -2.7891    0.0000 O   0  0  0  0  0  0  0  0  0  0  0  0
   11.9231   -1.7823    0.0000 O   0  0  0  0  0  0  0  0  0  0  0  0
   12.7903   -1.2817    0.0000 C   0  0  0  0  0  0  0  0  0  0  0  0
   12.7905   -0.2802    0.0000 R#  0  0  0  0  0  0  0  0  0  0  0  0
   14.5204   -3.2925    0.0000 R#  0  0  0  0  0  0  0  0  0  0  0  0
   13.6576   -1.7824    0.0000 O   0  0  0  0  0  0  0  0  0  0  0  0
   17.1603  -17.9757    0.0000 C   0  0  0  0  0  0  0  0  0  0  0  0
   17.1602  -16.9742    0.0000 O   0  0  0  0  0  0  0  0  0  0  0  0
   18.0277  -18.4766    0.0000 C   0  0  0  0  0  0  0  0  0  0  0  0
   18.0276  -19.4781    0.0000 N   0  0  0  0  0  0  0  0  0  0  0  0
   18.9200  -18.0219    0.0000 C   0  0  0  0  0  0  0  0  0  0  0  0
  1  2  1  0
  1  6  1  0
  2  3  1  0
  3  4  1  0
  4  5  1  0
  5  6  1  0
  1  7  1  6
  6  8  1  1
  5  9  1  6
  3 10  1  1
  2 11  1  1
  4 12  1  1
 13 19  1  6
 14 13  1  0
 14 15  1  0
 13 16  1  0
 16 20  1  1
 15 17  1  0
 17 22  1  1
 16 18  1  0
 17 18  1  0
 18 21  1  6
 22 23  1  0
 14  7  1  6
 10 24  1  0
 25 26  1  0
 25 27  1  0
 26 28  1  0
 27 29  1  0
 28 30  1  0
 29 30  1  0
 26 31  1  1
 28 32  1  1
 30 33  1  6
 29 34  1  1
 35 34  1  0
 36 37  1  0
 36 38  1  0
 37 39  1  0
 38 40  1  0
 39 41  1  0
 40 41  1  0
 37 42  1  1
 39 43  1  1
 41 44  1  6
 40 45  1  1
 46 45  1  0
 36 35  1  6
 47 48  1  0
 47 49  1  0
 48 50  1  0
 49 51  1  0
 50 52  1  0
 51 52  1  0
 48 53  1  1
 50 54  1  1
 52 55  1  6
 51 56  1  1
 57 56  1  0
 47 42  1  6
 25 21  1  6
 58 59  1  0
 58 60  2  0
 58 61  1  0
 62 63  1  0
 61 62  1  0
 63 64  1  0
 57 58  1  0
 46 65  1  0
 53 66  1  0
 31 67  1  0
 32 68  1  0
 33 69  1  0
 70 71  1  0
 70 72  2  0
 70 73  1  0
 71 74  1  0
 75 74  1  1
 75 76  1  0
 76 77  1  0
 75 78  1  0
 78 79  1  0
 79 80  1  0
 77 81  1  0
 79 82  2  0
 11 70  1  0
 85 86  1  0
 85 83  1  0
 83 84  2  0
 85 87  1  6
 64 83  1  0
M  RGP  8  24   3  65   7  66   8  67   4  68   5  69   6  80   2  81   1
V   24 *
V   65 *
V   66 *
V   67 *
V   68 *
V   69 *
V   80 *
V   81 *
M  END
>  <ChEBI ID>  (155) 
CHEBI:143785

>  <ChEBI Name>  (155) 
GPI-anchor amidated L-alanine residue(1-)

>  <Star>  (155) 
2

>  <Definition>  (155) 
A GPI-anchor amidated amino acid where R1 can be an alkyl or an acyl group, R2 is an acyl group, R3 can be an acyl group or an H, R4-8 can be other sugar groups, phosphoethanolamine or H.

>  <SMILES>  (155) 
[C@@H]1([C@@H]([C@@H]([C@@H]([C@H]([C@@H]1O)O)O)O*)OP(OC[C@H](CO*)OC(*)=O)(=O)[O-])O[C@@H]2[C@H]([NH3+])[C@@H](O)[C@@H]([C@H](O2)CO)O[C@@H]3[C@H]([C@H]([C@@H]([C@H](O3)CO[C@@H]4[C@H]([C@H]([C@@H]([C@H](O4)CO*)O)O)O[C@@H]5[C@H]([C@H]([C@@H]([C@H](O5)COP([O-])(=O)OCCNC([C@@H](N*)C)=O)O)O)O*)O*)O*)O*

>  <Formulae>  (155) 
C39H61N3O35P2R8

>  <Charge>  (155) 
-1

>  <Mass>  (155) 
1193.850

>  <Monoisotopic Mass>  (155) 
1193.25608

>  <Synonyms>  (155) 
GPI-anchor amidated L-alanine group(1-)
a GPI-anchor amidated L-alanine residue
glycosylphosphatidylinositol-anchor amidated L-alanine residue(1-)

>  <PubMed citation Links>  (155) 
7682556
7744038

>  <PubChem Database Links>  (155) 
SID: 85343424

>  <Last Modified>  (155) 
12 Mar 2020

$$$$

     RDKit          2D

 90 94  0  0  1  0  0  0  0  0999 V2000
    7.5823   -4.2745    0.0000 C   0  0  0  0  0  0  0  0  0  0  0  0
    7.5829   -3.2734    0.0000 C   0  0  0  0  0  0  0  0  0  0  0  0
    6.7157   -2.7721    0.0000 C   0  0  0  0  0  0  0  0  0  0  0  0
    5.8484   -3.2722    0.0000 C   0  0  0  0  0  0  0  0  0  0  0  0
    5.8478   -4.2738    0.0000 C   0  0  0  0  0  0  0  0  0  0  0  0
    6.7149   -4.7750    0.0000 C   0  0  0  0  0  0  0  0  0  0  0  0
    8.4495   -4.7756    0.0000 O   0  0  0  0  0  0  0  0  0  0  0  0
    6.7142   -5.7761    0.0000 O   0  0  0  0  0  0  0  0  0  0  0  0
    4.9804   -4.7739    0.0000 O   0  0  0  0  0  0  0  0  0  0  0  0
    6.7166   -1.7704    0.0000 O   0  0  0  0  0  0  0  0  0  0  0  0
    8.4503   -2.7728    0.0000 O   0  0  0  0  0  0  0  0  0  0  0  0
    4.9811   -2.7710    0.0000 O   0  0  0  0  0  0  0  0  0  0  0  0
    9.9516   -5.6428    0.0000 C   0  0  0  0  0  0  0  0  0  0  0  0
    8.9502   -5.6428    0.0000 C   0  0  0  0  0  0  0  0  0  0  0  0
    8.4495   -6.5101    0.0000 O   0  0  0  0  0  0  0  0  0  0  0  0
   10.4523   -6.5101    0.0000 C   0  0  0  0  0  0  0  0  0  0  0  0
    8.9502   -7.3774    0.0000 C   0  0  0  0  0  0  0  0  0  0  0  0
    9.9516   -7.3774    0.0000 C   0  0  0  0  0  0  0  0  0  0  0  0
   10.4523   -4.7756    0.0000 N   0  0  0  0  0  0  0  0  0  0  0  0
   11.4538   -6.5101    0.0000 O   0  0  0  0  0  0  0  0  0  0  0  0
   10.4523   -8.2446    0.0000 O   0  0  0  0  0  0  0  0  0  0  0  0
    8.4495   -8.2446    0.0000 C   0  0  0  0  0  0  0  0  0  0  0  0
    8.9502   -9.1119    0.0000 O   0  0  0  0  0  0  0  0  0  0  0  0
    7.5839   -1.2698    0.0000 R#  0  0  0  0  0  0  0  0  0  0  0  0
   10.4525   -9.2459    0.0000 C   0  0  0  0  0  0  0  0  0  0  0  0
   11.3196   -9.7466    0.0000 C   0  0  0  0  0  0  0  0  0  0  0  0
    9.5850   -9.7467    0.0000 O   0  0  0  0  0  0  0  0  0  0  0  0
   11.3196  -10.7482    0.0000 C   0  0  0  0  0  0  0  0  0  0  0  0
    9.5850  -10.7483    0.0000 C   0  0  0  0  0  0  0  0  0  0  0  0
   10.4523  -11.2490    0.0000 C   0  0  0  0  0  0  0  0  0  0  0  0
   12.1868   -9.2460    0.0000 O   0  0  0  0  0  0  0  0  0  0  0  0
   12.1868  -11.2489    0.0000 O   0  0  0  0  0  0  0  0  0  0  0  0
   10.4523  -12.2504    0.0000 O   0  0  0  0  0  0  0  0  0  0  0  0
    8.7177  -11.2490    0.0000 C   0  0  0  0  0  0  0  0  0  0  0  0
    8.7178  -12.2503    0.0000 O   0  0  0  0  0  0  0  0  0  0  0  0
    8.2171  -13.1175    0.0000 C   0  0  0  0  0  0  0  0  0  0  0  0
    8.7180  -13.9848    0.0000 C   0  0  0  0  0  0  0  0  0  0  0  0
    7.2157  -13.1177    0.0000 O   0  0  0  0  0  0  0  0  0  0  0  0
    8.2170  -14.8522    0.0000 C   0  0  0  0  0  0  0  0  0  0  0  0
    6.7150  -13.9849    0.0000 C   0  0  0  0  0  0  0  0  0  0  0  0
    7.2156  -14.8522    0.0000 C   0  0  0  0  0  0  0  0  0  0  0  0
    9.7193  -13.9848    0.0000 O   0  0  0  0  0  0  0  0  0  0  0  0
    8.7177  -15.7194    0.0000 O   0  0  0  0  0  0  0  0  0  0  0  0
    6.7149  -15.7194    0.0000 O   0  0  0  0  0  0  0  0  0  0  0  0
    5.7134  -13.9849    0.0000 C   0  0  0  0  0  0  0  0  0  0  0  0
    5.2128  -14.8521    0.0000 O   0  0  0  0  0  0  0  0  0  0  0  0
   10.5864  -14.4855    0.0000 C   0  0  0  0  0  0  0  0  0  0  0  0
   11.4537  -13.9847    0.0000 C   0  0  0  0  0  0  0  0  0  0  0  0
   10.5866  -15.4871    0.0000 O   0  0  0  0  0  0  0  0  0  0  0  0
   12.3210  -14.4856    0.0000 C   0  0  0  0  0  0  0  0  0  0  0  0
   11.4538  -15.9878    0.0000 C   0  0  0  0  0  0  0  0  0  0  0  0
   12.3211  -15.4870    0.0000 C   0  0  0  0  0  0  0  0  0  0  0  0
   11.4537  -12.9835    0.0000 O   0  0  0  0  0  0  0  0  0  0  0  0
   13.1883  -13.9849    0.0000 O   0  0  0  0  0  0  0  0  0  0  0  0
   13.1883  -15.9878    0.0000 O   0  0  0  0  0  0  0  0  0  0  0  0
   11.4538  -16.9892    0.0000 C   0  0  0  0  0  0  0  0  0  0  0  0
   12.3210  -17.4900    0.0000 O   0  0  0  0  0  0  0  0  0  0  0  0
   12.7756  -18.3821    0.0000 P   0  0  0  0  0  0  0  0  0  0  0  0
   13.1309  -19.1789    0.0000 O   0  0  0  0  0  0  0  0  0  0  0  0
   11.8631  -18.6928    0.0000 O   0  0  0  0  0  0  0  0  0  0  0  0
   13.6904  -17.9749    0.0000 O   0  0  0  0  0  0  0  0  0  0  0  0
   14.5576  -18.4756    0.0000 C   0  0  0  0  0  0  0  0  0  0  0  0
   15.4251  -17.9749    0.0000 C   0  0  0  0  0  0  0  0  0  0  0  0
   16.2922  -18.4756    0.0000 N   0  0  0  0  0  0  0  0  0  0  0  0
    4.2114  -14.8521    0.0000 R#  0  0  0  0  0  0  0  0  0  0  0  0
   12.3210  -12.4828    0.0000 R#  0  0  0  0  0  0  0  0  0  0  0  0
   13.1017   -9.6534    0.0000 R#  0  0  0  0  0  0  0  0  0  0  0  0
   13.1393  -10.9395    0.0000 R#  0  0  0  0  0  0  0  0  0  0  0  0
    9.5763  -12.7958    0.0000 R#  0  0  0  0  0  0  0  0  0  0  0  0
    9.3160   -3.2763    0.0000 P   0  0  0  0  0  0  0  0  0  0  0  0
   10.1849   -2.7783    0.0000 O   0  0  0  0  0  0  0  0  0  0  0  0
    9.3130   -4.2777    0.0000 O   0  0  0  0  0  0  0  0  0  0  0  0
    9.3160   -2.2750    0.0000 O   0  0  0  0  0  0  0  0  0  0  0  0
   11.0507   -3.2817    0.0000 C   0  0  0  0  0  0  0  0  0  0  0  0
   11.9194   -2.7836    0.0000 C   0  0  0  0  0  0  0  0  0  0  0  0
   12.7850   -3.2870    0.0000 C   0  0  0  0  0  0  0  0  0  0  0  0
   13.6540   -2.7890    0.0000 O   0  0  0  0  0  0  0  0  0  0  0  0
   11.9226   -1.7822    0.0000 O   0  0  0  0  0  0  0  0  0  0  0  0
   12.7898   -1.2816    0.0000 C   0  0  0  0  0  0  0  0  0  0  0  0
   12.7899   -0.2802    0.0000 R#  0  0  0  0  0  0  0  0  0  0  0  0
   14.5198   -3.2924    0.0000 R#  0  0  0  0  0  0  0  0  0  0  0  0
   13.6569   -1.7823    0.0000 O   0  0  0  0  0  0  0  0  0  0  0  0
   17.1595  -17.9749    0.0000 C   0  0  0  0  0  0  0  0  0  0  0  0
   17.1594  -16.9735    0.0000 O   0  0  0  0  0  0  0  0  0  0  0  0
   18.0269  -18.4757    0.0000 C   0  0  0  0  0  0  0  0  0  0  0  0
   18.0267  -19.4772    0.0000 N   0  0  0  0  0  0  0  0  0  0  0  0
   18.9192  -18.0210    0.0000 C   0  0  0  0  0  0  0  0  0  0  0  0
   19.8114  -18.4757    0.0000 C   0  0  0  0  0  0  0  0  0  0  0  0
   20.6512  -17.9302    0.0000 O   0  0  0  0  0  0  0  0  0  0  0  0
   19.8638  -19.4757    0.0000 N   0  0  0  0  0  0  0  0  0  0  0  0
  1  2  1  0
  1  6  1  0
  2  3  1  0
  3  4  1  0
  4  5  1  0
  5  6  1  0
  1  7  1  6
  6  8  1  1
  5  9  1  6
  3 10  1  1
  2 11  1  1
  4 12  1  1
 13 19  1  6
 14 13  1  0
 14 15  1  0
 13 16  1  0
 16 20  1  1
 15 17  1  0
 17 22  1  1
 16 18  1  0
 17 18  1  0
 18 21  1  6
 22 23  1  0
 14  7  1  6
 10 24  1  0
 25 26  1  0
 25 27  1  0
 26 28  1  0
 27 29  1  0
 28 30  1  0
 29 30  1  0
 26 31  1  1
 28 32  1  1
 30 33  1  6
 29 34  1  1
 35 34  1  0
 36 37  1  0
 36 38  1  0
 37 39  1  0
 38 40  1  0
 39 41  1  0
 40 41  1  0
 37 42  1  1
 39 43  1  1
 41 44  1  6
 40 45  1  1
 46 45  1  0
 36 35  1  6
 47 48  1  0
 47 49  1  0
 48 50  1  0
 49 51  1  0
 50 52  1  0
 51 52  1  0
 48 53  1  1
 50 54  1  1
 52 55  1  6
 51 56  1  1
 57 56  1  0
 47 42  1  6
 25 21  1  6
 58 59  1  0
 58 60  2  0
 58 61  1  0
 62 63  1  0
 61 62  1  0
 63 64  1  0
 57 58  1  0
 46 65  1  0
 53 66  1  0
 31 67  1  0
 32 68  1  0
 33 69  1  0
 70 71  1  0
 70 72  2  0
 70 73  1  0
 71 74  1  0
 75 74  1  1
 75 76  1  0
 76 77  1  0
 75 78  1  0
 78 79  1  0
 79 80  1  0
 77 81  1  0
 79 82  2  0
 11 70  1  0
 85 86  1  6
 85 83  1  0
 83 84  2  0
 85 87  1  0
 64 83  1  0
 88 89  2  0
 87 88  1  0
 88 90  1  0
M  RGP  8  24   3  65   7  66   8  67   4  68   5  69   6  80   2  81   1
V   24 *
V   65 *
V   66 *
V   67 *
V   68 *
V   69 *
V   80 *
V   81 *
M  END
>  <ChEBI ID>  (156) 
CHEBI:143786

>  <ChEBI Name>  (156) 
GPI-anchor amidated L-asparagine residue(1-)

>  <Star>  (156) 
2

>  <Definition>  (156) 
A GPI-anchor amidated amino acid where R1 can be an alkyl or an acyl group, R2 is an acyl group, R3 can be an acyl group or an H, R4-8 can be other sugar groups, phosphoethanolamine or H.

>  <SMILES>  (156) 
[C@@H]1([C@@H]([C@@H]([C@@H]([C@H]([C@@H]1O)O)O)O*)OP(OC[C@H](CO*)OC(*)=O)(=O)[O-])O[C@@H]2[C@H]([NH3+])[C@@H](O)[C@@H]([C@H](O2)CO)O[C@@H]3[C@H]([C@H]([C@@H]([C@H](O3)CO[C@@H]4[C@H]([C@H]([C@@H]([C@H](O4)CO*)O)O)O[C@@H]5[C@H]([C@H]([C@@H]([C@H](O5)COP([O-])(=O)OCCNC([C@@H](N*)CC(=O)N)=O)O)O)O*)O*)O*)O*

>  <Formulae>  (156) 
C40H62N4O36P2R8

>  <Charge>  (156) 
-1

>  <Mass>  (156) 
1236.875

>  <Monoisotopic Mass>  (156) 
1236.26190

>  <Synonyms>  (156) 
GPI-anchor amidated L-asparagine group(1-)
a GPI-anchor amidated L-asparagine residue
glycosylphosphatidylinositol-anchor amidated L-asparagine residue(1-)

>  <PubMed citation Links>  (156) 
3963830

>  <PubChem Database Links>  (156) 
SID: 85343425

>  <Last Modified>  (156) 
12 Mar 2020

$$$$

     RDKit          2D

 90 94  0  0  1  0  0  0  0  0999 V2000
    7.5823   -4.2745    0.0000 C   0  0  0  0  0  0  0  0  0  0  0  0
    7.5829   -3.2734    0.0000 C   0  0  0  0  0  0  0  0  0  0  0  0
    6.7157   -2.7721    0.0000 C   0  0  0  0  0  0  0  0  0  0  0  0
    5.8484   -3.2722    0.0000 C   0  0  0  0  0  0  0  0  0  0  0  0
    5.8478   -4.2738    0.0000 C   0  0  0  0  0  0  0  0  0  0  0  0
    6.7149   -4.7750    0.0000 C   0  0  0  0  0  0  0  0  0  0  0  0
    8.4495   -4.7756    0.0000 O   0  0  0  0  0  0  0  0  0  0  0  0
    6.7142   -5.7761    0.0000 O   0  0  0  0  0  0  0  0  0  0  0  0
    4.9804   -4.7739    0.0000 O   0  0  0  0  0  0  0  0  0  0  0  0
    6.7166   -1.7704    0.0000 O   0  0  0  0  0  0  0  0  0  0  0  0
    8.4503   -2.7728    0.0000 O   0  0  0  0  0  0  0  0  0  0  0  0
    4.9811   -2.7710    0.0000 O   0  0  0  0  0  0  0  0  0  0  0  0
    9.9516   -5.6428    0.0000 C   0  0  0  0  0  0  0  0  0  0  0  0
    8.9502   -5.6428    0.0000 C   0  0  0  0  0  0  0  0  0  0  0  0
    8.4495   -6.5101    0.0000 O   0  0  0  0  0  0  0  0  0  0  0  0
   10.4523   -6.5101    0.0000 C   0  0  0  0  0  0  0  0  0  0  0  0
    8.9502   -7.3774    0.0000 C   0  0  0  0  0  0  0  0  0  0  0  0
    9.9516   -7.3774    0.0000 C   0  0  0  0  0  0  0  0  0  0  0  0
   10.4523   -4.7756    0.0000 N   0  0  0  0  0  0  0  0  0  0  0  0
   11.4538   -6.5101    0.0000 O   0  0  0  0  0  0  0  0  0  0  0  0
   10.4523   -8.2446    0.0000 O   0  0  0  0  0  0  0  0  0  0  0  0
    8.4495   -8.2446    0.0000 C   0  0  0  0  0  0  0  0  0  0  0  0
    8.9502   -9.1119    0.0000 O   0  0  0  0  0  0  0  0  0  0  0  0
    7.5839   -1.2698    0.0000 R#  0  0  0  0  0  0  0  0  0  0  0  0
   10.4525   -9.2459    0.0000 C   0  0  0  0  0  0  0  0  0  0  0  0
   11.3196   -9.7466    0.0000 C   0  0  0  0  0  0  0  0  0  0  0  0
    9.5850   -9.7467    0.0000 O   0  0  0  0  0  0  0  0  0  0  0  0
   11.3196  -10.7482    0.0000 C   0  0  0  0  0  0  0  0  0  0  0  0
    9.5850  -10.7483    0.0000 C   0  0  0  0  0  0  0  0  0  0  0  0
   10.4523  -11.2490    0.0000 C   0  0  0  0  0  0  0  0  0  0  0  0
   12.1868   -9.2460    0.0000 O   0  0  0  0  0  0  0  0  0  0  0  0
   12.1868  -11.2489    0.0000 O   0  0  0  0  0  0  0  0  0  0  0  0
   10.4523  -12.2504    0.0000 O   0  0  0  0  0  0  0  0  0  0  0  0
    8.7177  -11.2490    0.0000 C   0  0  0  0  0  0  0  0  0  0  0  0
    8.7178  -12.2503    0.0000 O   0  0  0  0  0  0  0  0  0  0  0  0
    8.2171  -13.1175    0.0000 C   0  0  0  0  0  0  0  0  0  0  0  0
    8.7180  -13.9848    0.0000 C   0  0  0  0  0  0  0  0  0  0  0  0
    7.2157  -13.1177    0.0000 O   0  0  0  0  0  0  0  0  0  0  0  0
    8.2170  -14.8522    0.0000 C   0  0  0  0  0  0  0  0  0  0  0  0
    6.7150  -13.9849    0.0000 C   0  0  0  0  0  0  0  0  0  0  0  0
    7.2156  -14.8522    0.0000 C   0  0  0  0  0  0  0  0  0  0  0  0
    9.7193  -13.9848    0.0000 O   0  0  0  0  0  0  0  0  0  0  0  0
    8.7177  -15.7194    0.0000 O   0  0  0  0  0  0  0  0  0  0  0  0
    6.7149  -15.7194    0.0000 O   0  0  0  0  0  0  0  0  0  0  0  0
    5.7134  -13.9849    0.0000 C   0  0  0  0  0  0  0  0  0  0  0  0
    5.2128  -14.8521    0.0000 O   0  0  0  0  0  0  0  0  0  0  0  0
   10.5864  -14.4855    0.0000 C   0  0  0  0  0  0  0  0  0  0  0  0
   11.4537  -13.9847    0.0000 C   0  0  0  0  0  0  0  0  0  0  0  0
   10.5866  -15.4871    0.0000 O   0  0  0  0  0  0  0  0  0  0  0  0
   12.3210  -14.4856    0.0000 C   0  0  0  0  0  0  0  0  0  0  0  0
   11.4538  -15.9878    0.0000 C   0  0  0  0  0  0  0  0  0  0  0  0
   12.3211  -15.4870    0.0000 C   0  0  0  0  0  0  0  0  0  0  0  0
   11.4537  -12.9835    0.0000 O   0  0  0  0  0  0  0  0  0  0  0  0
   13.1883  -13.9849    0.0000 O   0  0  0  0  0  0  0  0  0  0  0  0
   13.1883  -15.9878    0.0000 O   0  0  0  0  0  0  0  0  0  0  0  0
   11.4538  -16.9892    0.0000 C   0  0  0  0  0  0  0  0  0  0  0  0
   12.3210  -17.4900    0.0000 O   0  0  0  0  0  0  0  0  0  0  0  0
   12.7756  -18.3821    0.0000 P   0  0  0  0  0  0  0  0  0  0  0  0
   13.1309  -19.1789    0.0000 O   0  0  0  0  0  0  0  0  0  0  0  0
   11.8631  -18.6928    0.0000 O   0  0  0  0  0  0  0  0  0  0  0  0
   13.6904  -17.9749    0.0000 O   0  0  0  0  0  0  0  0  0  0  0  0
   14.5576  -18.4756    0.0000 C   0  0  0  0  0  0  0  0  0  0  0  0
   15.4251  -17.9749    0.0000 C   0  0  0  0  0  0  0  0  0  0  0  0
   16.2922  -18.4756    0.0000 N   0  0  0  0  0  0  0  0  0  0  0  0
    4.2114  -14.8521    0.0000 R#  0  0  0  0  0  0  0  0  0  0  0  0
   12.3210  -12.4828    0.0000 R#  0  0  0  0  0  0  0  0  0  0  0  0
   13.1017   -9.6534    0.0000 R#  0  0  0  0  0  0  0  0  0  0  0  0
   13.1393  -10.9395    0.0000 R#  0  0  0  0  0  0  0  0  0  0  0  0
    9.5763  -12.7958    0.0000 R#  0  0  0  0  0  0  0  0  0  0  0  0
    9.3160   -3.2763    0.0000 P   0  0  0  0  0  0  0  0  0  0  0  0
   10.1849   -2.7783    0.0000 O   0  0  0  0  0  0  0  0  0  0  0  0
    9.3130   -4.2777    0.0000 O   0  0  0  0  0  0  0  0  0  0  0  0
    9.3160   -2.2750    0.0000 O   0  0  0  0  0  0  0  0  0  0  0  0
   11.0507   -3.2817    0.0000 C   0  0  0  0  0  0  0  0  0  0  0  0
   11.9194   -2.7836    0.0000 C   0  0  0  0  0  0  0  0  0  0  0  0
   12.7850   -3.2870    0.0000 C   0  0  0  0  0  0  0  0  0  0  0  0
   13.6540   -2.7890    0.0000 O   0  0  0  0  0  0  0  0  0  0  0  0
   11.9226   -1.7822    0.0000 O   0  0  0  0  0  0  0  0  0  0  0  0
   12.7898   -1.2816    0.0000 C   0  0  0  0  0  0  0  0  0  0  0  0
   12.7899   -0.2802    0.0000 R#  0  0  0  0  0  0  0  0  0  0  0  0
   14.5198   -3.2924    0.0000 R#  0  0  0  0  0  0  0  0  0  0  0  0
   13.6569   -1.7823    0.0000 O   0  0  0  0  0  0  0  0  0  0  0  0
   17.1595  -17.9749    0.0000 C   0  0  0  0  0  0  0  0  0  0  0  0
   17.1594  -16.9735    0.0000 O   0  0  0  0  0  0  0  0  0  0  0  0
   18.0269  -18.4757    0.0000 C   0  0  0  0  0  0  0  0  0  0  0  0
   18.0267  -19.4772    0.0000 N   0  0  0  0  0  0  0  0  0  0  0  0
   18.9192  -18.0210    0.0000 C   0  0  0  0  0  0  0  0  0  0  0  0
   19.8114  -18.4757    0.0000 C   0  0  0  0  0  0  0  0  0  0  0  0
   20.6512  -17.9302    0.0000 O   0  0  0  0  0  0  0  0  0  0  0  0
   19.8638  -19.4757    0.0000 O   0  0  0  0  0  0  0  0  0  0  0  0
  1  2  1  0
  1  6  1  0
  2  3  1  0
  3  4  1  0
  4  5  1  0
  5  6  1  0
  1  7  1  6
  6  8  1  1
  5  9  1  6
  3 10  1  1
  2 11  1  1
  4 12  1  1
 13 19  1  6
 14 13  1  0
 14 15  1  0
 13 16  1  0
 16 20  1  1
 15 17  1  0
 17 22  1  1
 16 18  1  0
 17 18  1  0
 18 21  1  6
 22 23  1  0
 14  7  1  6
 10 24  1  0
 25 26  1  0
 25 27  1  0
 26 28  1  0
 27 29  1  0
 28 30  1  0
 29 30  1  0
 26 31  1  1
 28 32  1  1
 30 33  1  6
 29 34  1  1
 35 34  1  0
 36 37  1  0
 36 38  1  0
 37 39  1  0
 38 40  1  0
 39 41  1  0
 40 41  1  0
 37 42  1  1
 39 43  1  1
 41 44  1  6
 40 45  1  1
 46 45  1  0
 36 35  1  6
 47 48  1  0
 47 49  1  0
 48 50  1  0
 49 51  1  0
 50 52  1  0
 51 52  1  0
 48 53  1  1
 50 54  1  1
 52 55  1  6
 51 56  1  1
 57 56  1  0
 47 42  1  6
 25 21  1  6
 58 59  1  0
 58 60  2  0
 58 61  1  0
 62 63  1  0
 61 62  1  0
 63 64  1  0
 57 58  1  0
 46 65  1  0
 53 66  1  0
 31 67  1  0
 32 68  1  0
 33 69  1  0
 70 71  1  0
 70 72  2  0
 70 73  1  0
 71 74  1  0
 75 74  1  1
 75 76  1  0
 76 77  1  0
 75 78  1  0
 78 79  1  0
 79 80  1  0
 77 81  1  0
 79 82  2  0
 11 70  1  0
 85 86  1  6
 85 83  1  0
 83 84  2  0
 85 87  1  0
 64 83  1  0
 88 89  2  0
 87 88  1  0
 88 90  1  0
M  RGP  8  24   3  65   7  66   8  67   4  68   5  69   6  80   2  81   1
V   24 *
V   65 *
V   66 *
V   67 *
V   68 *
V   69 *
V   80 *
V   81 *
M  END
>  <ChEBI ID>  (157) 
CHEBI:143787

>  <ChEBI Name>  (157) 
GPI-anchor amidated L-aspartate residue(2-)

>  <Star>  (157) 
2

>  <Definition>  (157) 
A GPI-anchor amidated amino acid where R1 can be an alkyl or an acyl group, R2 is an acyl group, R3 can be an acyl group or an H, R4-8 can be other sugar groups, phosphoethanolamine or H.

>  <SMILES>  (157) 
[C@@H]1([C@@H]([C@@H]([C@@H]([C@H]([C@@H]1O)O)O)O*)OP(OC[C@H](CO*)OC(*)=O)(=O)[O-])O[C@@H]2[C@H]([NH3+])[C@@H](O)[C@@H]([C@H](O2)CO)O[C@@H]3[C@H]([C@H]([C@@H]([C@H](O3)CO[C@@H]4[C@H]([C@H]([C@@H]([C@H](O4)CO*)O)O)O[C@@H]5[C@H]([C@H]([C@@H]([C@H](O5)COP([O-])(=O)OCCNC([C@@H](N*)CC(=O)[O-])=O)O)O)O*)O*)O*)O*

>  <Formulae>  (157) 
C40H60N3O37P2R8

>  <Charge>  (157) 
-2

>  <Mass>  (157) 
1236.851

>  <Monoisotopic Mass>  (157) 
1236.23809

>  <Synonyms>  (157) 
GPI-anchor amidated L-aspartate group(2-)
a GPI-anchor amidated L-aspartate residue
glycosylphosphatidylinositol-anchor amidated L-aspartate residue(2-)

>  <PubMed citation Links>  (157) 
3340856

>  <PubChem Database Links>  (157) 
SID: 85343426

>  <Last Modified>  (157) 
04 Feb 2020

$$$$

     RDKit          2D

 87 91  0  0  1  0  0  0  0  0999 V2000
    7.5826   -4.2747    0.0000 C   0  0  0  0  0  0  0  0  0  0  0  0
    7.5832   -3.2736    0.0000 C   0  0  0  0  0  0  0  0  0  0  0  0
    6.7160   -2.7722    0.0000 C   0  0  0  0  0  0  0  0  0  0  0  0
    5.8487   -3.2724    0.0000 C   0  0  0  0  0  0  0  0  0  0  0  0
    5.8481   -4.2740    0.0000 C   0  0  0  0  0  0  0  0  0  0  0  0
    6.7152   -4.7752    0.0000 C   0  0  0  0  0  0  0  0  0  0  0  0
    8.4499   -4.7758    0.0000 O   0  0  0  0  0  0  0  0  0  0  0  0
    6.7146   -5.7763    0.0000 O   0  0  0  0  0  0  0  0  0  0  0  0
    4.9806   -4.7741    0.0000 O   0  0  0  0  0  0  0  0  0  0  0  0
    6.7169   -1.7705    0.0000 O   0  0  0  0  0  0  0  0  0  0  0  0
    8.4507   -2.7730    0.0000 O   0  0  0  0  0  0  0  0  0  0  0  0
    4.9813   -2.7711    0.0000 O   0  0  0  0  0  0  0  0  0  0  0  0
    9.9521   -5.6430    0.0000 C   0  0  0  0  0  0  0  0  0  0  0  0
    8.9506   -5.6430    0.0000 C   0  0  0  0  0  0  0  0  0  0  0  0
    8.4499   -6.5104    0.0000 O   0  0  0  0  0  0  0  0  0  0  0  0
   10.4528   -6.5104    0.0000 C   0  0  0  0  0  0  0  0  0  0  0  0
    8.9506   -7.3777    0.0000 C   0  0  0  0  0  0  0  0  0  0  0  0
    9.9521   -7.3777    0.0000 C   0  0  0  0  0  0  0  0  0  0  0  0
   10.4528   -4.7758    0.0000 N   0  0  0  0  0  0  0  0  0  0  0  0
   11.4543   -6.5104    0.0000 O   0  0  0  0  0  0  0  0  0  0  0  0
   10.4528   -8.2449    0.0000 O   0  0  0  0  0  0  0  0  0  0  0  0
    8.4499   -8.2449    0.0000 C   0  0  0  0  0  0  0  0  0  0  0  0
    8.9506   -9.1123    0.0000 O   0  0  0  0  0  0  0  0  0  0  0  0
    7.5842   -1.2699    0.0000 R#  0  0  0  0  0  0  0  0  0  0  0  0
   10.4529   -9.2463    0.0000 C   0  0  0  0  0  0  0  0  0  0  0  0
   11.3202   -9.7470    0.0000 C   0  0  0  0  0  0  0  0  0  0  0  0
    9.5855   -9.7472    0.0000 O   0  0  0  0  0  0  0  0  0  0  0  0
   11.3202  -10.7487    0.0000 C   0  0  0  0  0  0  0  0  0  0  0  0
    9.5855  -10.7488    0.0000 C   0  0  0  0  0  0  0  0  0  0  0  0
   10.4528  -11.2495    0.0000 C   0  0  0  0  0  0  0  0  0  0  0  0
   12.1874   -9.2464    0.0000 O   0  0  0  0  0  0  0  0  0  0  0  0
   12.1874  -11.2494    0.0000 O   0  0  0  0  0  0  0  0  0  0  0  0
   10.4528  -12.2510    0.0000 O   0  0  0  0  0  0  0  0  0  0  0  0
    8.7181  -11.2495    0.0000 C   0  0  0  0  0  0  0  0  0  0  0  0
    8.7182  -12.2509    0.0000 O   0  0  0  0  0  0  0  0  0  0  0  0
    8.2175  -13.1181    0.0000 C   0  0  0  0  0  0  0  0  0  0  0  0
    8.7184  -13.9854    0.0000 C   0  0  0  0  0  0  0  0  0  0  0  0
    7.2160  -13.1183    0.0000 O   0  0  0  0  0  0  0  0  0  0  0  0
    8.2174  -14.8529    0.0000 C   0  0  0  0  0  0  0  0  0  0  0  0
    6.7153  -13.9856    0.0000 C   0  0  0  0  0  0  0  0  0  0  0  0
    7.2159  -14.8529    0.0000 C   0  0  0  0  0  0  0  0  0  0  0  0
    9.7197  -13.9854    0.0000 O   0  0  0  0  0  0  0  0  0  0  0  0
    8.7181  -15.7201    0.0000 O   0  0  0  0  0  0  0  0  0  0  0  0
    6.7152  -15.7201    0.0000 O   0  0  0  0  0  0  0  0  0  0  0  0
    5.7137  -13.9856    0.0000 C   0  0  0  0  0  0  0  0  0  0  0  0
    5.2131  -14.8528    0.0000 O   0  0  0  0  0  0  0  0  0  0  0  0
   10.5868  -14.4862    0.0000 C   0  0  0  0  0  0  0  0  0  0  0  0
   11.4542  -13.9853    0.0000 C   0  0  0  0  0  0  0  0  0  0  0  0
   10.5871  -15.4878    0.0000 O   0  0  0  0  0  0  0  0  0  0  0  0
   12.3215  -14.4863    0.0000 C   0  0  0  0  0  0  0  0  0  0  0  0
   11.4543  -15.9885    0.0000 C   0  0  0  0  0  0  0  0  0  0  0  0
   12.3216  -15.4877    0.0000 C   0  0  0  0  0  0  0  0  0  0  0  0
   11.4542  -12.9841    0.0000 O   0  0  0  0  0  0  0  0  0  0  0  0
   13.1889  -13.9856    0.0000 O   0  0  0  0  0  0  0  0  0  0  0  0
   13.1889  -15.9885    0.0000 O   0  0  0  0  0  0  0  0  0  0  0  0
   11.4543  -16.9900    0.0000 C   0  0  0  0  0  0  0  0  0  0  0  0
   12.3215  -17.4908    0.0000 O   0  0  0  0  0  0  0  0  0  0  0  0
   12.7761  -18.3830    0.0000 P   0  0  0  0  0  0  0  0  0  0  0  0
   13.1315  -19.1798    0.0000 O   0  0  0  0  0  0  0  0  0  0  0  0
   11.8636  -18.6936    0.0000 O   0  0  0  0  0  0  0  0  0  0  0  0
   13.6911  -17.9757    0.0000 O   0  0  0  0  0  0  0  0  0  0  0  0
   14.5583  -18.4765    0.0000 C   0  0  0  0  0  0  0  0  0  0  0  0
   15.4258  -17.9757    0.0000 C   0  0  0  0  0  0  0  0  0  0  0  0
   16.2930  -18.4765    0.0000 N   0  0  0  0  0  0  0  0  0  0  0  0
    4.2116  -14.8528    0.0000 R#  0  0  0  0  0  0  0  0  0  0  0  0
   12.3215  -12.4833    0.0000 R#  0  0  0  0  0  0  0  0  0  0  0  0
   13.1023   -9.6538    0.0000 R#  0  0  0  0  0  0  0  0  0  0  0  0
   13.1400  -10.9400    0.0000 R#  0  0  0  0  0  0  0  0  0  0  0  0
    9.5767  -12.7964    0.0000 R#  0  0  0  0  0  0  0  0  0  0  0  0
    9.3165   -3.2765    0.0000 P   0  0  0  0  0  0  0  0  0  0  0  0
   10.1854   -2.7784    0.0000 O   0  0  0  0  0  0  0  0  0  0  0  0
    9.3134   -4.2779    0.0000 O   0  0  0  0  0  0  0  0  0  0  0  0
    9.3165   -2.2751    0.0000 O   0  0  0  0  0  0  0  0  0  0  0  0
   11.0512   -3.2818    0.0000 C   0  0  0  0  0  0  0  0  0  0  0  0
   11.9200   -2.7838    0.0000 C   0  0  0  0  0  0  0  0  0  0  0  0
   12.7856   -3.2872    0.0000 C   0  0  0  0  0  0  0  0  0  0  0  0
   13.6547   -2.7891    0.0000 O   0  0  0  0  0  0  0  0  0  0  0  0
   11.9231   -1.7823    0.0000 O   0  0  0  0  0  0  0  0  0  0  0  0
   12.7903   -1.2817    0.0000 C   0  0  0  0  0  0  0  0  0  0  0  0
   12.7905   -0.2802    0.0000 R#  0  0  0  0  0  0  0  0  0  0  0  0
   14.5204   -3.2925    0.0000 R#  0  0  0  0  0  0  0  0  0  0  0  0
   13.6576   -1.7824    0.0000 O   0  0  0  0  0  0  0  0  0  0  0  0
   17.1603  -17.9757    0.0000 C   0  0  0  0  0  0  0  0  0  0  0  0
   17.1602  -16.9742    0.0000 O   0  0  0  0  0  0  0  0  0  0  0  0
   18.0277  -18.4766    0.0000 C   0  0  0  0  0  0  0  0  0  0  0  0
   18.0276  -19.4781    0.0000 N   0  0  0  0  0  0  0  0  0  0  0  0
   18.9200  -18.0219    0.0000 R#  0  0  0  0  0  0  0  0  0  0  0  0
  1  2  1  0
  1  6  1  0
  2  3  1  0
  3  4  1  0
  4  5  1  0
  5  6  1  0
  1  7  1  6
  6  8  1  1
  5  9  1  6
  3 10  1  1
  2 11  1  1
  4 12  1  1
 13 19  1  6
 14 13  1  0
 14 15  1  0
 13 16  1  0
 16 20  1  1
 15 17  1  0
 17 22  1  1
 16 18  1  0
 17 18  1  0
 18 21  1  6
 22 23  1  0
 14  7  1  6
 10 24  1  0
 25 26  1  0
 25 27  1  0
 26 28  1  0
 27 29  1  0
 28 30  1  0
 29 30  1  0
 26 31  1  1
 28 32  1  1
 30 33  1  6
 29 34  1  1
 35 34  1  0
 36 37  1  0
 36 38  1  0
 37 39  1  0
 38 40  1  0
 39 41  1  0
 40 41  1  0
 37 42  1  1
 39 43  1  1
 41 44  1  6
 40 45  1  1
 46 45  1  0
 36 35  1  6
 47 48  1  0
 47 49  1  0
 48 50  1  0
 49 51  1  0
 50 52  1  0
 51 52  1  0
 48 53  1  1
 50 54  1  1
 52 55  1  6
 51 56  1  1
 57 56  1  0
 47 42  1  6
 25 21  1  6
 58 59  1  0
 58 60  2  0
 58 61  1  0
 62 63  1  0
 61 62  1  0
 63 64  1  0
 57 58  1  0
 46 65  1  0
 53 66  1  0
 31 67  1  0
 32 68  1  0
 33 69  1  0
 70 71  1  0
 70 72  2  0
 70 73  1  0
 71 74  1  0
 75 74  1  1
 75 76  1  0
 76 77  1  0
 75 78  1  0
 78 79  1  0
 79 80  1  0
 77 81  1  0
 79 82  2  0
 11 70  1  0
 85 86  1  0
 85 83  1  0
 83 84  2  0
 85 87  1  6
 64 83  1  0
M  RGP  9  24   3  65   7  66   8  67   4  68   5  69   6  80   2  81   1  87   9
V   24 *
V   65 *
V   66 *
V   67 *
V   68 *
V   69 *
V   80 *
V   81 *
V   87 *
M  END
>  <ChEBI ID>  (158) 
CHEBI:143797

>  <ChEBI Name>  (158) 
GPI-anchor amidated amino acid carboxyl end residue(1-)

>  <Star>  (158) 
2

>  <Definition>  (158) 
A GPI-anchor amidated amino acid where R1 can be an alkyl or an acyl group, R2 is an acyl group, R3 can be an acyl group or an H, R4-8 can be other sugar groups, phosphoethanolamine or H, and R9 is the side chain of a C-terminal amino acid residue.

>  <SMILES>  (158) 
[C@@H]1([C@@H]([C@@H]([C@@H]([C@H]([C@@H]1O)O)O)O*)OP(OC[C@H](CO*)OC(*)=O)(=O)[O-])O[C@@H]2[C@H]([NH3+])[C@@H](O)[C@@H]([C@H](O2)CO)O[C@@H]3[C@H]([C@H]([C@@H]([C@H](O3)CO[C@@H]4[C@H]([C@H]([C@@H]([C@H](O4)CO*)O)O)O[C@@H]5[C@H]([C@H]([C@@H]([C@H](O5)COP([O-])(=O)OCCNC([C@@H](N*)*)=O)O)O)O*)O*)O*)O*

>  <Formulae>  (158) 
C38H58N3O35P2R9

>  <Charge>  (158) 
-1

>  <Mass>  (158) 
1178.815

>  <Monoisotopic Mass>  (158) 
1178.23261

>  <Synonyms>  (158) 
a GPI-anchor amidated carboxyl end residue
glycosylphosphatidylinositol-anchor amidated amino acid carboxyl end residue(1-)

>  <PubMed citation Links>  (158) 
8373346
30728244

>  <PubChem Database Links>  (158) 
SID: 85343436

>  <Last Modified>  (158) 
22 Apr 2022

$$$$

     RDKit          2D

 88 92  0  0  1  0  0  0  0  0999 V2000
    7.5825   -4.2746    0.0000 C   0  0  0  0  0  0  0  0  0  0  0  0
    7.5831   -3.2735    0.0000 C   0  0  0  0  0  0  0  0  0  0  0  0
    6.7159   -2.7722    0.0000 C   0  0  0  0  0  0  0  0  0  0  0  0
    5.8486   -3.2723    0.0000 C   0  0  0  0  0  0  0  0  0  0  0  0
    5.8480   -4.2739    0.0000 C   0  0  0  0  0  0  0  0  0  0  0  0
    6.7151   -4.7751    0.0000 C   0  0  0  0  0  0  0  0  0  0  0  0
    8.4497   -4.7757    0.0000 O   0  0  0  0  0  0  0  0  0  0  0  0
    6.7145   -5.7762    0.0000 O   0  0  0  0  0  0  0  0  0  0  0  0
    4.9805   -4.7740    0.0000 O   0  0  0  0  0  0  0  0  0  0  0  0
    6.7168   -1.7705    0.0000 O   0  0  0  0  0  0  0  0  0  0  0  0
    8.4506   -2.7729    0.0000 O   0  0  0  0  0  0  0  0  0  0  0  0
    4.9812   -2.7711    0.0000 O   0  0  0  0  0  0  0  0  0  0  0  0
    9.9519   -5.6429    0.0000 C   0  0  0  0  0  0  0  0  0  0  0  0
    8.9505   -5.6429    0.0000 C   0  0  0  0  0  0  0  0  0  0  0  0
    8.4497   -6.5103    0.0000 O   0  0  0  0  0  0  0  0  0  0  0  0
   10.4527   -6.5103    0.0000 C   0  0  0  0  0  0  0  0  0  0  0  0
    8.9505   -7.3776    0.0000 C   0  0  0  0  0  0  0  0  0  0  0  0
    9.9519   -7.3776    0.0000 C   0  0  0  0  0  0  0  0  0  0  0  0
   10.4527   -4.7757    0.0000 N   0  0  0  0  0  0  0  0  0  0  0  0
   11.4541   -6.5103    0.0000 O   0  0  0  0  0  0  0  0  0  0  0  0
   10.4527   -8.2448    0.0000 O   0  0  0  0  0  0  0  0  0  0  0  0
    8.4497   -8.2448    0.0000 C   0  0  0  0  0  0  0  0  0  0  0  0
    8.9505   -9.1121    0.0000 O   0  0  0  0  0  0  0  0  0  0  0  0
    7.5841   -1.2699    0.0000 R#  0  0  0  0  0  0  0  0  0  0  0  0
   10.4528   -9.2462    0.0000 C   0  0  0  0  0  0  0  0  0  0  0  0
   11.3200   -9.7469    0.0000 C   0  0  0  0  0  0  0  0  0  0  0  0
    9.5853   -9.7470    0.0000 O   0  0  0  0  0  0  0  0  0  0  0  0
   11.3200  -10.7485    0.0000 C   0  0  0  0  0  0  0  0  0  0  0  0
    9.5853  -10.7486    0.0000 C   0  0  0  0  0  0  0  0  0  0  0  0
   10.4527  -11.2493    0.0000 C   0  0  0  0  0  0  0  0  0  0  0  0
   12.1872   -9.2463    0.0000 O   0  0  0  0  0  0  0  0  0  0  0  0
   12.1872  -11.2492    0.0000 O   0  0  0  0  0  0  0  0  0  0  0  0
   10.4527  -12.2508    0.0000 O   0  0  0  0  0  0  0  0  0  0  0  0
    8.7180  -11.2493    0.0000 C   0  0  0  0  0  0  0  0  0  0  0  0
    8.7181  -12.2507    0.0000 O   0  0  0  0  0  0  0  0  0  0  0  0
    8.2174  -13.1179    0.0000 C   0  0  0  0  0  0  0  0  0  0  0  0
    8.7182  -13.9852    0.0000 C   0  0  0  0  0  0  0  0  0  0  0  0
    7.2159  -13.1181    0.0000 O   0  0  0  0  0  0  0  0  0  0  0  0
    8.2173  -14.8527    0.0000 C   0  0  0  0  0  0  0  0  0  0  0  0
    6.7152  -13.9854    0.0000 C   0  0  0  0  0  0  0  0  0  0  0  0
    7.2158  -14.8527    0.0000 C   0  0  0  0  0  0  0  0  0  0  0  0
    9.7196  -13.9852    0.0000 O   0  0  0  0  0  0  0  0  0  0  0  0
    8.7180  -15.7199    0.0000 O   0  0  0  0  0  0  0  0  0  0  0  0
    6.7151  -15.7199    0.0000 O   0  0  0  0  0  0  0  0  0  0  0  0
    5.7136  -13.9854    0.0000 C   0  0  0  0  0  0  0  0  0  0  0  0
    5.2130  -14.8526    0.0000 O   0  0  0  0  0  0  0  0  0  0  0  0
   10.5867  -14.4860    0.0000 C   0  0  0  0  0  0  0  0  0  0  0  0
   11.4540  -13.9851    0.0000 C   0  0  0  0  0  0  0  0  0  0  0  0
   10.5869  -15.4876    0.0000 O   0  0  0  0  0  0  0  0  0  0  0  0
   12.3213  -14.4861    0.0000 C   0  0  0  0  0  0  0  0  0  0  0  0
   11.4541  -15.9883    0.0000 C   0  0  0  0  0  0  0  0  0  0  0  0
   12.3215  -15.4874    0.0000 C   0  0  0  0  0  0  0  0  0  0  0  0
   11.4540  -12.9839    0.0000 O   0  0  0  0  0  0  0  0  0  0  0  0
   13.1887  -13.9854    0.0000 O   0  0  0  0  0  0  0  0  0  0  0  0
   13.1887  -15.9883    0.0000 O   0  0  0  0  0  0  0  0  0  0  0  0
   11.4541  -16.9898    0.0000 C   0  0  0  0  0  0  0  0  0  0  0  0
   12.3213  -17.4905    0.0000 O   0  0  0  0  0  0  0  0  0  0  0  0
   12.7759  -18.3827    0.0000 P   0  0  0  0  0  0  0  0  0  0  0  0
   13.1313  -19.1795    0.0000 O   0  0  0  0  0  0  0  0  0  0  0  0
   11.8635  -18.6934    0.0000 O   0  0  0  0  0  0  0  0  0  0  0  0
   13.6909  -17.9755    0.0000 O   0  0  0  0  0  0  0  0  0  0  0  0
   14.5581  -18.4762    0.0000 C   0  0  0  0  0  0  0  0  0  0  0  0
   15.4255  -17.9755    0.0000 C   0  0  0  0  0  0  0  0  0  0  0  0
   16.2927  -18.4762    0.0000 N   0  0  0  0  0  0  0  0  0  0  0  0
    4.2115  -14.8526    0.0000 R#  0  0  0  0  0  0  0  0  0  0  0  0
   12.3213  -12.4832    0.0000 R#  0  0  0  0  0  0  0  0  0  0  0  0
   13.1021   -9.6537    0.0000 R#  0  0  0  0  0  0  0  0  0  0  0  0
   13.1398  -10.9398    0.0000 R#  0  0  0  0  0  0  0  0  0  0  0  0
    9.5766  -12.7962    0.0000 R#  0  0  0  0  0  0  0  0  0  0  0  0
    9.3163   -3.2764    0.0000 P   0  0  0  0  0  0  0  0  0  0  0  0
   10.1852   -2.7784    0.0000 O   0  0  0  0  0  0  0  0  0  0  0  0
    9.3133   -4.2778    0.0000 O   0  0  0  0  0  0  0  0  0  0  0  0
    9.3163   -2.2751    0.0000 O   0  0  0  0  0  0  0  0  0  0  0  0
   11.0510   -3.2818    0.0000 C   0  0  0  0  0  0  0  0  0  0  0  0
   11.9198   -2.7837    0.0000 C   0  0  0  0  0  0  0  0  0  0  0  0
   12.7854   -3.2871    0.0000 C   0  0  0  0  0  0  0  0  0  0  0  0
   13.6544   -2.7891    0.0000 O   0  0  0  0  0  0  0  0  0  0  0  0
   11.9229   -1.7822    0.0000 O   0  0  0  0  0  0  0  0  0  0  0  0
   12.7901   -1.2816    0.0000 C   0  0  0  0  0  0  0  0  0  0  0  0
   12.7903   -0.2802    0.0000 R#  0  0  0  0  0  0  0  0  0  0  0  0
   14.5202   -3.2925    0.0000 R#  0  0  0  0  0  0  0  0  0  0  0  0
   13.6574   -1.7824    0.0000 O   0  0  0  0  0  0  0  0  0  0  0  0
   17.1601  -17.9755    0.0000 C   0  0  0  0  0  0  0  0  0  0  0  0
   17.1600  -16.9740    0.0000 O   0  0  0  0  0  0  0  0  0  0  0  0
   18.0274  -18.4763    0.0000 C   0  0  0  0  0  0  0  0  0  0  0  0
   18.0273  -19.4778    0.0000 N   0  0  0  0  0  0  0  0  0  0  0  0
   18.9197  -18.0216    0.0000 C   0  0  0  0  0  0  0  0  0  0  0  0
   19.7870  -18.5223    0.0000 S   0  0  0  0  0  0  0  0  0  0  0  0
  1  2  1  0
  1  6  1  0
  2  3  1  0
  3  4  1  0
  4  5  1  0
  5  6  1  0
  1  7  1  6
  6  8  1  1
  5  9  1  6
  3 10  1  1
  2 11  1  1
  4 12  1  1
 13 19  1  6
 14 13  1  0
 14 15  1  0
 13 16  1  0
 16 20  1  1
 15 17  1  0
 17 22  1  1
 16 18  1  0
 17 18  1  0
 18 21  1  6
 22 23  1  0
 14  7  1  6
 10 24  1  0
 25 26  1  0
 25 27  1  0
 26 28  1  0
 27 29  1  0
 28 30  1  0
 29 30  1  0
 26 31  1  1
 28 32  1  1
 30 33  1  6
 29 34  1  1
 35 34  1  0
 36 37  1  0
 36 38  1  0
 37 39  1  0
 38 40  1  0
 39 41  1  0
 40 41  1  0
 37 42  1  1
 39 43  1  1
 41 44  1  6
 40 45  1  1
 46 45  1  0
 36 35  1  6
 47 48  1  0
 47 49  1  0
 48 50  1  0
 49 51  1  0
 50 52  1  0
 51 52  1  0
 48 53  1  1
 50 54  1  1
 52 55  1  6
 51 56  1  1
 57 56  1  0
 47 42  1  6
 25 21  1  6
 58 59  1  0
 58 60  2  0
 58 61  1  0
 62 63  1  0
 61 62  1  0
 63 64  1  0
 57 58  1  0
 46 65  1  0
 53 66  1  0
 31 67  1  0
 32 68  1  0
 33 69  1  0
 70 71  1  0
 70 72  2  0
 70 73  1  0
 71 74  1  0
 75 74  1  1
 75 76  1  0
 76 77  1  0
 75 78  1  0
 78 79  1  0
 79 80  1  0
 77 81  1  0
 79 82  2  0
 11 70  1  0
 85 86  1  6
 85 83  1  0
 83 84  2  0
 85 87  1  0
 64 83  1  0
 87 88  1  0
M  RGP  8  24   3  65   7  66   8  67   4  68   5  69   6  80   2  81   1
V   24 *
V   65 *
V   66 *
V   67 *
V   68 *
V   69 *
V   80 *
V   81 *
M  END
>  <ChEBI ID>  (159) 
CHEBI:143798

>  <ChEBI Name>  (159) 
GPI-anchor amidated L-cysteine residue(1-)

>  <Star>  (159) 
2

>  <Definition>  (159) 
A GPI-anchor amidated amino acid where R1 can be an alkyl or an acyl group, R2 is an acyl group, R3 can be an acyl group or an H, R4-8 can be other sugar groups, phosphoethanolamine or H.

>  <SMILES>  (159) 
[C@@H]1([C@@H]([C@@H]([C@@H]([C@H]([C@@H]1O)O)O)O*)OP(OC[C@H](CO*)OC(*)=O)(=O)[O-])O[C@@H]2[C@H]([NH3+])[C@@H](O)[C@@H]([C@H](O2)CO)O[C@@H]3[C@H]([C@H]([C@@H]([C@H](O3)CO[C@@H]4[C@H]([C@H]([C@@H]([C@H](O4)CO*)O)O)O[C@@H]5[C@H]([C@H]([C@@H]([C@H](O5)COP([O-])(=O)OCCNC([C@@H](N*)CS)=O)O)O)O*)O*)O*)O*

>  <Formulae>  (159) 
C39H61N3O35P2SR8

>  <Charge>  (159) 
-1

>  <Mass>  (159) 
1225.916

>  <Monoisotopic Mass>  (159) 
1225.22815

>  <Synonyms>  (159) 
a GPI-anchor amidated L-cysteine residue
glycosylphosphatidylinositol-anchor amidated L-cysteine residue(1-)

>  <PubMed citation Links>  (159) 
2897081

>  <PubChem Database Links>  (159) 
SID: 85343437

>  <Last Modified>  (159) 
06 Nov 2019

$$$$

     RDKit          2D

 86 90  0  0  1  0  0  0  0  0999 V2000
    7.5828   -4.2748    0.0000 C   0  0  0  0  0  0  0  0  0  0  0  0
    7.5834   -3.2736    0.0000 C   0  0  0  0  0  0  0  0  0  0  0  0
    6.7161   -2.7723    0.0000 C   0  0  0  0  0  0  0  0  0  0  0  0
    5.8488   -3.2724    0.0000 C   0  0  0  0  0  0  0  0  0  0  0  0
    5.8482   -4.2740    0.0000 C   0  0  0  0  0  0  0  0  0  0  0  0
    6.7153   -4.7753    0.0000 C   0  0  0  0  0  0  0  0  0  0  0  0
    8.4500   -4.7759    0.0000 O   0  0  0  0  0  0  0  0  0  0  0  0
    6.7147   -5.7764    0.0000 O   0  0  0  0  0  0  0  0  0  0  0  0
    4.9807   -4.7742    0.0000 O   0  0  0  0  0  0  0  0  0  0  0  0
    6.7170   -1.7705    0.0000 O   0  0  0  0  0  0  0  0  0  0  0  0
    8.4508   -2.7730    0.0000 O   0  0  0  0  0  0  0  0  0  0  0  0
    4.9814   -2.7712    0.0000 O   0  0  0  0  0  0  0  0  0  0  0  0
    9.9522   -5.6431    0.0000 C   0  0  0  0  0  0  0  0  0  0  0  0
    8.9507   -5.6431    0.0000 C   0  0  0  0  0  0  0  0  0  0  0  0
    8.4500   -6.5105    0.0000 O   0  0  0  0  0  0  0  0  0  0  0  0
   10.4530   -6.5105    0.0000 C   0  0  0  0  0  0  0  0  0  0  0  0
    8.9507   -7.3778    0.0000 C   0  0  0  0  0  0  0  0  0  0  0  0
    9.9522   -7.3778    0.0000 C   0  0  0  0  0  0  0  0  0  0  0  0
   10.4530   -4.7759    0.0000 N   0  0  0  0  0  0  0  0  0  0  0  0
   11.4545   -6.5105    0.0000 O   0  0  0  0  0  0  0  0  0  0  0  0
   10.4530   -8.2451    0.0000 O   0  0  0  0  0  0  0  0  0  0  0  0
    8.4500   -8.2451    0.0000 C   0  0  0  0  0  0  0  0  0  0  0  0
    8.9507   -9.1124    0.0000 O   0  0  0  0  0  0  0  0  0  0  0  0
    7.5843   -1.2699    0.0000 R#  0  0  0  0  0  0  0  0  0  0  0  0
   10.4531   -9.2465    0.0000 C   0  0  0  0  0  0  0  0  0  0  0  0
   11.3204   -9.7472    0.0000 C   0  0  0  0  0  0  0  0  0  0  0  0
    9.5856   -9.7473    0.0000 O   0  0  0  0  0  0  0  0  0  0  0  0
   11.3204  -10.7488    0.0000 C   0  0  0  0  0  0  0  0  0  0  0  0
    9.5856  -10.7490    0.0000 C   0  0  0  0  0  0  0  0  0  0  0  0
   10.4530  -11.2497    0.0000 C   0  0  0  0  0  0  0  0  0  0  0  0
   12.1876   -9.2466    0.0000 O   0  0  0  0  0  0  0  0  0  0  0  0
   12.1876  -11.2496    0.0000 O   0  0  0  0  0  0  0  0  0  0  0  0
   10.4530  -12.2512    0.0000 O   0  0  0  0  0  0  0  0  0  0  0  0
    8.7183  -11.2497    0.0000 C   0  0  0  0  0  0  0  0  0  0  0  0
    8.7184  -12.2511    0.0000 O   0  0  0  0  0  0  0  0  0  0  0  0
    8.2176  -13.1183    0.0000 C   0  0  0  0  0  0  0  0  0  0  0  0
    8.7185  -13.9857    0.0000 C   0  0  0  0  0  0  0  0  0  0  0  0
    7.2161  -13.1186    0.0000 O   0  0  0  0  0  0  0  0  0  0  0  0
    8.2175  -14.8532    0.0000 C   0  0  0  0  0  0  0  0  0  0  0  0
    6.7154  -13.9858    0.0000 C   0  0  0  0  0  0  0  0  0  0  0  0
    7.2160  -14.8532    0.0000 C   0  0  0  0  0  0  0  0  0  0  0  0
    9.7199  -13.9857    0.0000 O   0  0  0  0  0  0  0  0  0  0  0  0
    8.7183  -15.7204    0.0000 O   0  0  0  0  0  0  0  0  0  0  0  0
    6.7153  -15.7204    0.0000 O   0  0  0  0  0  0  0  0  0  0  0  0
    5.7138  -13.9858    0.0000 C   0  0  0  0  0  0  0  0  0  0  0  0
    5.2131  -14.8530    0.0000 O   0  0  0  0  0  0  0  0  0  0  0  0
   10.5870  -14.4864    0.0000 C   0  0  0  0  0  0  0  0  0  0  0  0
   11.4544  -13.9856    0.0000 C   0  0  0  0  0  0  0  0  0  0  0  0
   10.5873  -15.4881    0.0000 O   0  0  0  0  0  0  0  0  0  0  0  0
   12.3217  -14.4866    0.0000 C   0  0  0  0  0  0  0  0  0  0  0  0
   11.4545  -15.9888    0.0000 C   0  0  0  0  0  0  0  0  0  0  0  0
   12.3219  -15.4879    0.0000 C   0  0  0  0  0  0  0  0  0  0  0  0
   11.4544  -12.9843    0.0000 O   0  0  0  0  0  0  0  0  0  0  0  0
   13.1891  -13.9858    0.0000 O   0  0  0  0  0  0  0  0  0  0  0  0
   13.1891  -15.9888    0.0000 O   0  0  0  0  0  0  0  0  0  0  0  0
   11.4545  -16.9903    0.0000 C   0  0  0  0  0  0  0  0  0  0  0  0
   12.3217  -17.4911    0.0000 O   0  0  0  0  0  0  0  0  0  0  0  0
   12.7764  -18.3833    0.0000 P   0  0  0  0  0  0  0  0  0  0  0  0
   13.1317  -19.1801    0.0000 O   0  0  0  0  0  0  0  0  0  0  0  0
   11.8638  -18.6940    0.0000 O   0  0  0  0  0  0  0  0  0  0  0  0
   13.6913  -17.9760    0.0000 O   0  0  0  0  0  0  0  0  0  0  0  0
   14.5585  -18.4768    0.0000 C   0  0  0  0  0  0  0  0  0  0  0  0
   15.4260  -17.9760    0.0000 C   0  0  0  0  0  0  0  0  0  0  0  0
   16.2933  -18.4768    0.0000 N   0  0  0  0  0  0  0  0  0  0  0  0
    4.2116  -14.8530    0.0000 R#  0  0  0  0  0  0  0  0  0  0  0  0
   12.3217  -12.4836    0.0000 R#  0  0  0  0  0  0  0  0  0  0  0  0
   13.1025   -9.6540    0.0000 R#  0  0  0  0  0  0  0  0  0  0  0  0
   13.1402  -10.9402    0.0000 R#  0  0  0  0  0  0  0  0  0  0  0  0
    9.5769  -12.7966    0.0000 R#  0  0  0  0  0  0  0  0  0  0  0  0
    9.3166   -3.2765    0.0000 P   0  0  0  0  0  0  0  0  0  0  0  0
   10.1856   -2.7785    0.0000 O   0  0  0  0  0  0  0  0  0  0  0  0
    9.3136   -4.2779    0.0000 O   0  0  0  0  0  0  0  0  0  0  0  0
    9.3166   -2.2752    0.0000 O   0  0  0  0  0  0  0  0  0  0  0  0
   11.0513   -3.2819    0.0000 C   0  0  0  0  0  0  0  0  0  0  0  0
   11.9202   -2.7838    0.0000 C   0  0  0  0  0  0  0  0  0  0  0  0
   12.7858   -3.2872    0.0000 C   0  0  0  0  0  0  0  0  0  0  0  0
   13.6549   -2.7891    0.0000 O   0  0  0  0  0  0  0  0  0  0  0  0
   11.9233   -1.7823    0.0000 O   0  0  0  0  0  0  0  0  0  0  0  0
   12.7906   -1.2817    0.0000 C   0  0  0  0  0  0  0  0  0  0  0  0
   12.7907   -0.2802    0.0000 R#  0  0  0  0  0  0  0  0  0  0  0  0
   14.5207   -3.2926    0.0000 R#  0  0  0  0  0  0  0  0  0  0  0  0
   13.6578   -1.7824    0.0000 O   0  0  0  0  0  0  0  0  0  0  0  0
   17.1606  -17.9760    0.0000 C   0  0  0  0  0  0  0  0  0  0  0  0
   17.1605  -16.9745    0.0000 O   0  0  0  0  0  0  0  0  0  0  0  0
   18.0280  -18.4769    0.0000 C   0  0  0  0  0  0  0  0  0  0  0  0
   18.0279  -19.4784    0.0000 N   0  0  0  0  0  0  0  0  0  0  0  0
  1  2  1  0
  1  6  1  0
  2  3  1  0
  3  4  1  0
  4  5  1  0
  5  6  1  0
  1  7  1  6
  6  8  1  1
  5  9  1  6
  3 10  1  1
  2 11  1  1
  4 12  1  1
 13 19  1  6
 14 13  1  0
 14 15  1  0
 13 16  1  0
 16 20  1  1
 15 17  1  0
 17 22  1  1
 16 18  1  0
 17 18  1  0
 18 21  1  6
 22 23  1  0
 14  7  1  6
 10 24  1  0
 25 26  1  0
 25 27  1  0
 26 28  1  0
 27 29  1  0
 28 30  1  0
 29 30  1  0
 26 31  1  1
 28 32  1  1
 30 33  1  6
 29 34  1  1
 35 34  1  0
 36 37  1  0
 36 38  1  0
 37 39  1  0
 38 40  1  0
 39 41  1  0
 40 41  1  0
 37 42  1  1
 39 43  1  1
 41 44  1  6
 40 45  1  1
 46 45  1  0
 36 35  1  6
 47 48  1  0
 47 49  1  0
 48 50  1  0
 49 51  1  0
 50 52  1  0
 51 52  1  0
 48 53  1  1
 50 54  1  1
 52 55  1  6
 51 56  1  1
 57 56  1  0
 47 42  1  6
 25 21  1  6
 58 59  1  0
 58 60  2  0
 58 61  1  0
 62 63  1  0
 61 62  1  0
 63 64  1  0
 57 58  1  0
 46 65  1  0
 53 66  1  0
 31 67  1  0
 32 68  1  0
 33 69  1  0
 70 71  1  0
 70 72  2  0
 70 73  1  0
 71 74  1  0
 75 74  1  1
 75 76  1  0
 76 77  1  0
 75 78  1  0
 78 79  1  0
 79 80  1  0
 77 81  1  0
 79 82  2  0
 11 70  1  0
 85 86  1  0
 85 83  1  0
 83 84  2  0
 64 83  1  0
M  RGP  8  24   3  65   7  66   8  67   4  68   5  69   6  80   2  81   1
V   24 *
V   65 *
V   66 *
V   67 *
V   68 *
V   69 *
V   80 *
V   81 *
M  END
>  <ChEBI ID>  (160) 
CHEBI:143799

>  <ChEBI Name>  (160) 
GPI-anchor amidated glycine residue(1-)

>  <Star>  (160) 
2

>  <Definition>  (160) 
A GPI-anchor amidated amino acid where R1 can be an alkyl or an acyl group, R2 is an acyl group, R3 can be an acyl group or an H, R4-8 can be other sugar groups, phosphoethanolamine or H.

>  <SMILES>  (160) 
[C@@H]1([C@@H]([C@@H]([C@@H]([C@H]([C@@H]1O)O)O)O*)OP(OC[C@H](CO*)OC(*)=O)(=O)[O-])O[C@@H]2[C@H]([NH3+])[C@@H](O)[C@@H]([C@H](O2)CO)O[C@@H]3[C@H]([C@H]([C@@H]([C@H](O3)CO[C@@H]4[C@H]([C@H]([C@@H]([C@H](O4)CO*)O)O)O[C@@H]5[C@H]([C@H]([C@@H]([C@H](O5)COP([O-])(=O)OCCNC(CN*)=O)O)O)O*)O*)O*)O*

>  <Formulae>  (160) 
C38H59N3O35P2R8

>  <Charge>  (160) 
-1

>  <Mass>  (160) 
1179.823

>  <Monoisotopic Mass>  (160) 
1179.24043

>  <Synonyms>  (160) 
a GPI-anchor amidated glycine
glycosylphosphatidylinositol-anchor amidated glycine(1-)

>  <PubMed citation Links>  (160) 
2341397

>  <PubChem Database Links>  (160) 
SID: 85343438

$$$$

     RDKit          2D

 89 93  0  0  1  0  0  0  0  0999 V2000
    7.5824   -4.2746    0.0000 C   0  0  0  0  0  0  0  0  0  0  0  0
    7.5830   -3.2735    0.0000 C   0  0  0  0  0  0  0  0  0  0  0  0
    6.7158   -2.7721    0.0000 C   0  0  0  0  0  0  0  0  0  0  0  0
    5.8485   -3.2723    0.0000 C   0  0  0  0  0  0  0  0  0  0  0  0
    5.8479   -4.2738    0.0000 C   0  0  0  0  0  0  0  0  0  0  0  0
    6.7150   -4.7750    0.0000 C   0  0  0  0  0  0  0  0  0  0  0  0
    8.4496   -4.7757    0.0000 O   0  0  0  0  0  0  0  0  0  0  0  0
    6.7143   -5.7761    0.0000 O   0  0  0  0  0  0  0  0  0  0  0  0
    4.9804   -4.7740    0.0000 O   0  0  0  0  0  0  0  0  0  0  0  0
    6.7167   -1.7704    0.0000 O   0  0  0  0  0  0  0  0  0  0  0  0
    8.4504   -2.7729    0.0000 O   0  0  0  0  0  0  0  0  0  0  0  0
    4.9812   -2.7711    0.0000 O   0  0  0  0  0  0  0  0  0  0  0  0
    9.9518   -5.6429    0.0000 C   0  0  0  0  0  0  0  0  0  0  0  0
    8.9503   -5.6429    0.0000 C   0  0  0  0  0  0  0  0  0  0  0  0
    8.4496   -6.5102    0.0000 O   0  0  0  0  0  0  0  0  0  0  0  0
   10.4525   -6.5102    0.0000 C   0  0  0  0  0  0  0  0  0  0  0  0
    8.9503   -7.3775    0.0000 C   0  0  0  0  0  0  0  0  0  0  0  0
    9.9518   -7.3775    0.0000 C   0  0  0  0  0  0  0  0  0  0  0  0
   10.4525   -4.7757    0.0000 N   0  0  0  0  0  0  0  0  0  0  0  0
   11.4540   -6.5102    0.0000 O   0  0  0  0  0  0  0  0  0  0  0  0
   10.4525   -8.2447    0.0000 O   0  0  0  0  0  0  0  0  0  0  0  0
    8.4496   -8.2447    0.0000 C   0  0  0  0  0  0  0  0  0  0  0  0
    8.9503   -9.1120    0.0000 O   0  0  0  0  0  0  0  0  0  0  0  0
    7.5840   -1.2698    0.0000 R#  0  0  0  0  0  0  0  0  0  0  0  0
   10.4526   -9.2460    0.0000 C   0  0  0  0  0  0  0  0  0  0  0  0
   11.3198   -9.7467    0.0000 C   0  0  0  0  0  0  0  0  0  0  0  0
    9.5852   -9.7469    0.0000 O   0  0  0  0  0  0  0  0  0  0  0  0
   11.3198  -10.7483    0.0000 C   0  0  0  0  0  0  0  0  0  0  0  0
    9.5852  -10.7484    0.0000 C   0  0  0  0  0  0  0  0  0  0  0  0
   10.4525  -11.2492    0.0000 C   0  0  0  0  0  0  0  0  0  0  0  0
   12.1870   -9.2461    0.0000 O   0  0  0  0  0  0  0  0  0  0  0  0
   12.1870  -11.2490    0.0000 O   0  0  0  0  0  0  0  0  0  0  0  0
   10.4525  -12.2506    0.0000 O   0  0  0  0  0  0  0  0  0  0  0  0
    8.7179  -11.2492    0.0000 C   0  0  0  0  0  0  0  0  0  0  0  0
    8.7180  -12.2505    0.0000 O   0  0  0  0  0  0  0  0  0  0  0  0
    8.2173  -13.1177    0.0000 C   0  0  0  0  0  0  0  0  0  0  0  0
    8.7181  -13.9850    0.0000 C   0  0  0  0  0  0  0  0  0  0  0  0
    7.2158  -13.1179    0.0000 O   0  0  0  0  0  0  0  0  0  0  0  0
    8.2171  -14.8525    0.0000 C   0  0  0  0  0  0  0  0  0  0  0  0
    6.7151  -13.9851    0.0000 C   0  0  0  0  0  0  0  0  0  0  0  0
    7.2157  -14.8525    0.0000 C   0  0  0  0  0  0  0  0  0  0  0  0
    9.7194  -13.9850    0.0000 O   0  0  0  0  0  0  0  0  0  0  0  0
    8.7179  -15.7197    0.0000 O   0  0  0  0  0  0  0  0  0  0  0  0
    6.7150  -15.7197    0.0000 O   0  0  0  0  0  0  0  0  0  0  0  0
    5.7135  -13.9851    0.0000 C   0  0  0  0  0  0  0  0  0  0  0  0
    5.2129  -14.8523    0.0000 O   0  0  0  0  0  0  0  0  0  0  0  0
   10.5865  -14.4857    0.0000 C   0  0  0  0  0  0  0  0  0  0  0  0
   11.4538  -13.9849    0.0000 C   0  0  0  0  0  0  0  0  0  0  0  0
   10.5868  -15.4873    0.0000 O   0  0  0  0  0  0  0  0  0  0  0  0
   12.3212  -14.4859    0.0000 C   0  0  0  0  0  0  0  0  0  0  0  0
   11.4540  -15.9880    0.0000 C   0  0  0  0  0  0  0  0  0  0  0  0
   12.3213  -15.4872    0.0000 C   0  0  0  0  0  0  0  0  0  0  0  0
   11.4538  -12.9837    0.0000 O   0  0  0  0  0  0  0  0  0  0  0  0
   13.1885  -13.9851    0.0000 O   0  0  0  0  0  0  0  0  0  0  0  0
   13.1885  -15.9880    0.0000 O   0  0  0  0  0  0  0  0  0  0  0  0
   11.4540  -16.9895    0.0000 C   0  0  0  0  0  0  0  0  0  0  0  0
   12.3212  -17.4902    0.0000 O   0  0  0  0  0  0  0  0  0  0  0  0
   12.7757  -18.3824    0.0000 P   0  0  0  0  0  0  0  0  0  0  0  0
   13.1311  -19.1792    0.0000 O   0  0  0  0  0  0  0  0  0  0  0  0
   11.8633  -18.6931    0.0000 O   0  0  0  0  0  0  0  0  0  0  0  0
   13.6907  -17.9752    0.0000 O   0  0  0  0  0  0  0  0  0  0  0  0
   14.5579  -18.4759    0.0000 C   0  0  0  0  0  0  0  0  0  0  0  0
   15.4253  -17.9752    0.0000 C   0  0  0  0  0  0  0  0  0  0  0  0
   16.2925  -18.4759    0.0000 N   0  0  0  0  0  0  0  0  0  0  0  0
    4.2114  -14.8523    0.0000 R#  0  0  0  0  0  0  0  0  0  0  0  0
   12.3212  -12.4830    0.0000 R#  0  0  0  0  0  0  0  0  0  0  0  0
   13.1019   -9.6535    0.0000 R#  0  0  0  0  0  0  0  0  0  0  0  0
   13.1396  -10.9396    0.0000 R#  0  0  0  0  0  0  0  0  0  0  0  0
    9.5764  -12.7960    0.0000 R#  0  0  0  0  0  0  0  0  0  0  0  0
    9.3162   -3.2764    0.0000 P   0  0  0  0  0  0  0  0  0  0  0  0
   10.1851   -2.7783    0.0000 O   0  0  0  0  0  0  0  0  0  0  0  0
    9.3131   -4.2777    0.0000 O   0  0  0  0  0  0  0  0  0  0  0  0
    9.3162   -2.2751    0.0000 O   0  0  0  0  0  0  0  0  0  0  0  0
   11.0508   -3.2817    0.0000 C   0  0  0  0  0  0  0  0  0  0  0  0
   11.9196   -2.7837    0.0000 C   0  0  0  0  0  0  0  0  0  0  0  0
   12.7852   -3.2871    0.0000 C   0  0  0  0  0  0  0  0  0  0  0  0
   13.6542   -2.7890    0.0000 O   0  0  0  0  0  0  0  0  0  0  0  0
   11.9228   -1.7822    0.0000 O   0  0  0  0  0  0  0  0  0  0  0  0
   12.7900   -1.2816    0.0000 C   0  0  0  0  0  0  0  0  0  0  0  0
   12.7901   -0.2802    0.0000 R#  0  0  0  0  0  0  0  0  0  0  0  0
   14.5200   -3.2924    0.0000 R#  0  0  0  0  0  0  0  0  0  0  0  0
   13.6572   -1.7823    0.0000 O   0  0  0  0  0  0  0  0  0  0  0  0
   17.1598  -17.9752    0.0000 C   0  0  0  0  0  0  0  0  0  0  0  0
   17.1597  -16.9737    0.0000 O   0  0  0  0  0  0  0  0  0  0  0  0
   18.0271  -18.4760    0.0000 C   0  0  0  0  0  0  0  0  0  0  0  0
   18.0270  -19.4775    0.0000 N   0  0  0  0  0  0  0  0  0  0  0  0
   18.9195  -18.0213    0.0000 C   0  0  0  0  0  0  0  0  0  0  0  0
   19.7867  -18.5220    0.0000 C   0  0  0  0  0  0  0  0  0  0  0  0
   18.9457  -17.0202    0.0000 O   0  0  0  0  0  0  0  0  0  0  0  0
  1  2  1  0
  1  6  1  0
  2  3  1  0
  3  4  1  0
  4  5  1  0
  5  6  1  0
  1  7  1  6
  6  8  1  1
  5  9  1  6
  3 10  1  1
  2 11  1  1
  4 12  1  1
 13 19  1  6
 14 13  1  0
 14 15  1  0
 13 16  1  0
 16 20  1  1
 15 17  1  0
 17 22  1  1
 16 18  1  0
 17 18  1  0
 18 21  1  6
 22 23  1  0
 14  7  1  6
 10 24  1  0
 25 26  1  0
 25 27  1  0
 26 28  1  0
 27 29  1  0
 28 30  1  0
 29 30  1  0
 26 31  1  1
 28 32  1  1
 30 33  1  6
 29 34  1  1
 35 34  1  0
 36 37  1  0
 36 38  1  0
 37 39  1  0
 38 40  1  0
 39 41  1  0
 40 41  1  0
 37 42  1  1
 39 43  1  1
 41 44  1  6
 40 45  1  1
 46 45  1  0
 36 35  1  6
 47 48  1  0
 47 49  1  0
 48 50  1  0
 49 51  1  0
 50 52  1  0
 51 52  1  0
 48 53  1  1
 50 54  1  1
 52 55  1  6
 51 56  1  1
 57 56  1  0
 47 42  1  6
 25 21  1  6
 58 59  1  0
 58 60  2  0
 58 61  1  0
 62 63  1  0
 61 62  1  0
 63 64  1  0
 57 58  1  0
 46 65  1  0
 53 66  1  0
 31 67  1  0
 32 68  1  0
 33 69  1  0
 70 71  1  0
 70 72  2  0
 70 73  1  0
 71 74  1  0
 75 74  1  1
 75 76  1  0
 76 77  1  0
 75 78  1  0
 78 79  1  0
 79 80  1  0
 77 81  1  0
 79 82  2  0
 11 70  1  0
 85 86  1  6
 85 83  1  0
 83 84  2  0
 85 87  1  0
 64 83  1  0
 87 88  1  6
 87 89  1  0
M  RGP  8  24   3  65   7  66   8  67   4  68   5  69   6  80   2  81   1
V   24 *
V   65 *
V   66 *
V   67 *
V   68 *
V   69 *
V   80 *
V   81 *
M  END
>  <ChEBI ID>  (161) 
CHEBI:143801

>  <ChEBI Name>  (161) 
GPI-anchor amidated L-threonine residue(1-)

>  <Star>  (161) 
2

>  <Definition>  (161) 
A GPI-anchor amidated amino acid where R1 can be an alkyl or an acyl group, R2 is an acyl group, R3 can be an acyl group or an H, R4-8 can be other sugar groups, phosphoethanolamine or H.

>  <SMILES>  (161) 
[C@@H]1([C@@H]([C@@H]([C@@H]([C@H]([C@@H]1O)O)O)O*)OP(OC[C@H](CO*)OC(*)=O)(=O)[O-])O[C@@H]2[C@H]([NH3+])[C@@H](O)[C@@H]([C@H](O2)CO)O[C@@H]3[C@H]([C@H]([C@@H]([C@H](O3)CO[C@@H]4[C@H]([C@H]([C@@H]([C@H](O4)CO*)O)O)O[C@@H]5[C@H]([C@H]([C@@H]([C@H](O5)COP([O-])(=O)OCCNC([C@@H](N*)[C@@H](C)O)=O)O)O)O*)O*)O*)O*

>  <Formulae>  (161) 
C40H63N3O36P2R8

>  <Charge>  (161) 
-1

>  <Mass>  (161) 
1223.876

>  <Monoisotopic Mass>  (161) 
1223.26665

>  <Synonyms>  (161) 
a GPI-anchor amidated L-threonine residue
glycosylphosphatidylinositol-anchor amidated L-threonine residue(1-)

>  <PubMed citation Links>  (161) 
30728244

>  <PubChem Database Links>  (161) 
SID: 85343440

>  <Last Modified>  (161) 
04 Feb 2020

$$$$

     RDKit          2D

 91 95  0  0  1  0  0  0  0  0999 V2000
    7.5822   -4.2744    0.0000 C   0  0  0  0  0  0  0  0  0  0  0  0
    7.5828   -3.2734    0.0000 C   0  0  0  0  0  0  0  0  0  0  0  0
    6.7156   -2.7721    0.0000 C   0  0  0  0  0  0  0  0  0  0  0  0
    5.8483   -3.2722    0.0000 C   0  0  0  0  0  0  0  0  0  0  0  0
    5.8477   -4.2737    0.0000 C   0  0  0  0  0  0  0  0  0  0  0  0
    6.7147   -4.7749    0.0000 C   0  0  0  0  0  0  0  0  0  0  0  0
    8.4493   -4.7755    0.0000 O   0  0  0  0  0  0  0  0  0  0  0  0
    6.7141   -5.7760    0.0000 O   0  0  0  0  0  0  0  0  0  0  0  0
    4.9803   -4.7738    0.0000 O   0  0  0  0  0  0  0  0  0  0  0  0
    6.7164   -1.7704    0.0000 O   0  0  0  0  0  0  0  0  0  0  0  0
    8.4502   -2.7728    0.0000 O   0  0  0  0  0  0  0  0  0  0  0  0
    4.9810   -2.7710    0.0000 O   0  0  0  0  0  0  0  0  0  0  0  0
    9.9515   -5.6427    0.0000 C   0  0  0  0  0  0  0  0  0  0  0  0
    8.9500   -5.6427    0.0000 C   0  0  0  0  0  0  0  0  0  0  0  0
    8.4493   -6.5100    0.0000 O   0  0  0  0  0  0  0  0  0  0  0  0
   10.4522   -6.5100    0.0000 C   0  0  0  0  0  0  0  0  0  0  0  0
    8.9500   -7.3773    0.0000 C   0  0  0  0  0  0  0  0  0  0  0  0
    9.9515   -7.3773    0.0000 C   0  0  0  0  0  0  0  0  0  0  0  0
   10.4522   -4.7755    0.0000 N   0  0  0  0  0  0  0  0  0  0  0  0
   11.4536   -6.5100    0.0000 O   0  0  0  0  0  0  0  0  0  0  0  0
   10.4522   -8.2444    0.0000 O   0  0  0  0  0  0  0  0  0  0  0  0
    8.4493   -8.2444    0.0000 C   0  0  0  0  0  0  0  0  0  0  0  0
    8.9500   -9.1117    0.0000 O   0  0  0  0  0  0  0  0  0  0  0  0
    7.5837   -1.2698    0.0000 R#  0  0  0  0  0  0  0  0  0  0  0  0
   10.4523   -9.2457    0.0000 C   0  0  0  0  0  0  0  0  0  0  0  0
   11.3195   -9.7464    0.0000 C   0  0  0  0  0  0  0  0  0  0  0  0
    9.5849   -9.7466    0.0000 O   0  0  0  0  0  0  0  0  0  0  0  0
   11.3195  -10.7480    0.0000 C   0  0  0  0  0  0  0  0  0  0  0  0
    9.5849  -10.7481    0.0000 C   0  0  0  0  0  0  0  0  0  0  0  0
   10.4522  -11.2488    0.0000 C   0  0  0  0  0  0  0  0  0  0  0  0
   12.1866   -9.2458    0.0000 O   0  0  0  0  0  0  0  0  0  0  0  0
   12.1866  -11.2487    0.0000 O   0  0  0  0  0  0  0  0  0  0  0  0
   10.4522  -12.2502    0.0000 O   0  0  0  0  0  0  0  0  0  0  0  0
    8.7176  -11.2488    0.0000 C   0  0  0  0  0  0  0  0  0  0  0  0
    8.7177  -12.2501    0.0000 O   0  0  0  0  0  0  0  0  0  0  0  0
    8.2170  -13.1173    0.0000 C   0  0  0  0  0  0  0  0  0  0  0  0
    8.7178  -13.9846    0.0000 C   0  0  0  0  0  0  0  0  0  0  0  0
    7.2156  -13.1175    0.0000 O   0  0  0  0  0  0  0  0  0  0  0  0
    8.2169  -14.8520    0.0000 C   0  0  0  0  0  0  0  0  0  0  0  0
    6.7149  -13.9847    0.0000 C   0  0  0  0  0  0  0  0  0  0  0  0
    7.2155  -14.8520    0.0000 C   0  0  0  0  0  0  0  0  0  0  0  0
    9.7191  -13.9846    0.0000 O   0  0  0  0  0  0  0  0  0  0  0  0
    8.7176  -15.7192    0.0000 O   0  0  0  0  0  0  0  0  0  0  0  0
    6.7147  -15.7192    0.0000 O   0  0  0  0  0  0  0  0  0  0  0  0
    5.7133  -13.9847    0.0000 C   0  0  0  0  0  0  0  0  0  0  0  0
    5.2127  -14.8519    0.0000 O   0  0  0  0  0  0  0  0  0  0  0  0
   10.5862  -14.4853    0.0000 C   0  0  0  0  0  0  0  0  0  0  0  0
   11.4535  -13.9844    0.0000 C   0  0  0  0  0  0  0  0  0  0  0  0
   10.5864  -15.4868    0.0000 O   0  0  0  0  0  0  0  0  0  0  0  0
   12.3208  -14.4854    0.0000 C   0  0  0  0  0  0  0  0  0  0  0  0
   11.4536  -15.9875    0.0000 C   0  0  0  0  0  0  0  0  0  0  0  0
   12.3209  -15.4867    0.0000 C   0  0  0  0  0  0  0  0  0  0  0  0
   11.4535  -12.9833    0.0000 O   0  0  0  0  0  0  0  0  0  0  0  0
   13.1880  -13.9847    0.0000 O   0  0  0  0  0  0  0  0  0  0  0  0
   13.1880  -15.9875    0.0000 O   0  0  0  0  0  0  0  0  0  0  0  0
   11.4536  -16.9890    0.0000 C   0  0  0  0  0  0  0  0  0  0  0  0
   12.3208  -17.4897    0.0000 O   0  0  0  0  0  0  0  0  0  0  0  0
   12.7753  -18.3818    0.0000 P   0  0  0  0  0  0  0  0  0  0  0  0
   13.1306  -19.1786    0.0000 O   0  0  0  0  0  0  0  0  0  0  0  0
   11.8629  -18.6925    0.0000 O   0  0  0  0  0  0  0  0  0  0  0  0
   13.6902  -17.9746    0.0000 O   0  0  0  0  0  0  0  0  0  0  0  0
   14.5574  -18.4753    0.0000 C   0  0  0  0  0  0  0  0  0  0  0  0
   15.4248  -17.9746    0.0000 C   0  0  0  0  0  0  0  0  0  0  0  0
   16.2920  -18.4753    0.0000 N   0  0  0  0  0  0  0  0  0  0  0  0
    4.2113  -14.8519    0.0000 R#  0  0  0  0  0  0  0  0  0  0  0  0
   12.3208  -12.4826    0.0000 R#  0  0  0  0  0  0  0  0  0  0  0  0
   13.1015   -9.6532    0.0000 R#  0  0  0  0  0  0  0  0  0  0  0  0
   13.1391  -10.9393    0.0000 R#  0  0  0  0  0  0  0  0  0  0  0  0
    9.5761  -12.7956    0.0000 R#  0  0  0  0  0  0  0  0  0  0  0  0
    9.3159   -3.2763    0.0000 P   0  0  0  0  0  0  0  0  0  0  0  0
   10.1848   -2.7782    0.0000 O   0  0  0  0  0  0  0  0  0  0  0  0
    9.3129   -4.2776    0.0000 O   0  0  0  0  0  0  0  0  0  0  0  0
    9.3159   -2.2750    0.0000 O   0  0  0  0  0  0  0  0  0  0  0  0
   11.0505   -3.2816    0.0000 C   0  0  0  0  0  0  0  0  0  0  0  0
   11.9192   -2.7836    0.0000 C   0  0  0  0  0  0  0  0  0  0  0  0
   12.7848   -3.2870    0.0000 C   0  0  0  0  0  0  0  0  0  0  0  0
   13.6538   -2.7889    0.0000 O   0  0  0  0  0  0  0  0  0  0  0  0
   11.9224   -1.7822    0.0000 N   0  0  0  0  0  0  0  0  0  0  0  0
   12.7895   -1.2816    0.0000 C   0  0  0  0  0  0  0  0  0  0  0  0
   12.7897   -0.2802    0.0000 R#  0  0  0  0  0  0  0  0  0  0  0  0
   14.5195   -3.2923    0.0000 R#  0  0  0  0  0  0  0  0  0  0  0  0
   13.6567   -1.7823    0.0000 O   0  0  0  0  0  0  0  0  0  0  0  0
   12.7818   -4.2885    0.0000 O   0  0  0  0  0  0  0  0  0  0  0  0
   17.1593  -17.9746    0.0000 C   0  0  0  0  0  0  0  0  0  0  0  0
   17.1591  -16.9732    0.0000 O   0  0  0  0  0  0  0  0  0  0  0  0
   18.0265  -18.4754    0.0000 C   0  0  0  0  0  0  0  0  0  0  0  0
   18.0264  -19.4768    0.0000 N   0  0  0  0  0  0  0  0  0  0  0  0
   18.9188  -18.0207    0.0000 C   0  0  0  0  0  0  0  0  0  0  0  0
   19.7860  -18.5214    0.0000 C   0  0  0  0  0  0  0  0  0  0  0  0
   20.6533  -18.0207    0.0000 O   0  0  0  0  0  0  0  0  0  0  0  0
   19.7860  -19.5229    0.0000 N   0  0  0  0  0  0  0  0  0  0  0  0
  1  2  1  0
  1  6  1  0
  2  3  1  0
  3  4  1  0
  4  5  1  0
  5  6  1  0
  1  7  1  6
  6  8  1  1
  5  9  1  6
  3 10  1  1
  2 11  1  1
  4 12  1  1
 13 19  1  6
 14 13  1  0
 14 15  1  0
 13 16  1  0
 16 20  1  1
 15 17  1  0
 17 22  1  1
 16 18  1  0
 17 18  1  0
 18 21  1  6
 22 23  1  0
 14  7  1  6
 10 24  1  0
 25 26  1  0
 25 27  1  0
 26 28  1  0
 27 29  1  0
 28 30  1  0
 29 30  1  0
 26 31  1  1
 28 32  1  1
 30 33  1  6
 29 34  1  1
 35 34  1  0
 36 37  1  0
 36 38  1  0
 37 39  1  0
 38 40  1  0
 39 41  1  0
 40 41  1  0
 37 42  1  1
 39 43  1  1
 41 44  1  6
 40 45  1  1
 46 45  1  0
 36 35  1  6
 47 48  1  0
 47 49  1  0
 48 50  1  0
 49 51  1  0
 50 52  1  0
 51 52  1  0
 48 53  1  1
 50 54  1  1
 52 55  1  6
 51 56  1  1
 57 56  1  0
 47 42  1  6
 25 21  1  6
 58 59  1  0
 58 60  2  0
 58 61  1  0
 62 63  1  0
 61 62  1  0
 63 64  1  0
 57 58  1  0
 46 65  1  0
 53 66  1  0
 31 67  1  0
 32 68  1  0
 33 69  1  0
 70 71  1  0
 70 72  2  0
 70 73  1  0
 71 74  1  0
 75 74  1  6
 75 76  1  0
 76 77  1  0
 75 78  1  0
 78 79  1  0
 79 80  1  0
 77 81  1  0
 79 82  2  0
 76 83  1  1
 11 70  1  0
 86 87  1  6
 86 84  1  0
 84 85  2  0
 86 88  1  0
 64 84  1  0
 89 90  2  0
 88 89  1  0
 89 91  1  0
M  RGP  8  24   3  65   7  66   8  67   4  68   5  69   6  80   2  81   1
V   24 *
V   65 *
V   66 *
V   67 *
V   68 *
V   69 *
V   80 *
V   81 *
M  END
>  <ChEBI ID>  (162) 
CHEBI:143802

>  <ChEBI Name>  (162) 
GIPC-anchor amidated L-asparagine residue(1-)

>  <Star>  (162) 
2

>  <Definition>  (162) 
A GIPC-anchor amidated amino acid where R1 represents the shingoid base, R2 is an acyl group, R3 can be an acyl group or an H, R4-8 can be other sugar groups, phosphoethanolamine or H.

>  <SMILES>  (162) 
[C@@H]1([C@@H]([C@@H]([C@@H]([C@H]([C@@H]1O)O)O)O*)OP(OC[C@@H]([C@@H](O*)O)NC(*)=O)(=O)[O-])O[C@@H]2[C@H]([NH3+])[C@@H](O)[C@@H]([C@H](O2)CO)O[C@@H]3[C@H]([C@H]([C@@H]([C@H](O3)CO[C@@H]4[C@H]([C@H]([C@@H]([C@H](O4)CO*)O)O)O[C@@H]5[C@H]([C@H]([C@@H]([C@H](O5)COP([O-])(=O)OCCNC([C@@H](N*)CC(=O)N)=O)O)O)O*)O*)O*)O*

>  <Formulae>  (162) 
C40H63N5O36P2R8

>  <Charge>  (162) 
-1

>  <Mass>  (162) 
1251.889

>  <Monoisotopic Mass>  (162) 
1251.27280

>  <Synonyms>  (162) 
a GIPC-anchor amidated L-asparagine residue
glycosylinositolphosphoceramide-anchor amidated L-asparagine residue(1-)

>  <PubMed citation Links>  (162) 
12626404

>  <PubChem Database Links>  (162) 
SID: 85343441

$$$$

     RDKit          2D

 91 95  0  0  1  0  0  0  0  0999 V2000
    7.5822   -4.2744    0.0000 C   0  0  0  0  0  0  0  0  0  0  0  0
    7.5828   -3.2734    0.0000 C   0  0  0  0  0  0  0  0  0  0  0  0
    6.7156   -2.7721    0.0000 C   0  0  0  0  0  0  0  0  0  0  0  0
    5.8483   -3.2722    0.0000 C   0  0  0  0  0  0  0  0  0  0  0  0
    5.8477   -4.2737    0.0000 C   0  0  0  0  0  0  0  0  0  0  0  0
    6.7147   -4.7749    0.0000 C   0  0  0  0  0  0  0  0  0  0  0  0
    8.4493   -4.7755    0.0000 O   0  0  0  0  0  0  0  0  0  0  0  0
    6.7141   -5.7760    0.0000 O   0  0  0  0  0  0  0  0  0  0  0  0
    4.9803   -4.7738    0.0000 O   0  0  0  0  0  0  0  0  0  0  0  0
    6.7164   -1.7704    0.0000 O   0  0  0  0  0  0  0  0  0  0  0  0
    8.4502   -2.7728    0.0000 O   0  0  0  0  0  0  0  0  0  0  0  0
    4.9810   -2.7710    0.0000 O   0  0  0  0  0  0  0  0  0  0  0  0
    9.9515   -5.6427    0.0000 C   0  0  0  0  0  0  0  0  0  0  0  0
    8.9500   -5.6427    0.0000 C   0  0  0  0  0  0  0  0  0  0  0  0
    8.4493   -6.5100    0.0000 O   0  0  0  0  0  0  0  0  0  0  0  0
   10.4522   -6.5100    0.0000 C   0  0  0  0  0  0  0  0  0  0  0  0
    8.9500   -7.3773    0.0000 C   0  0  0  0  0  0  0  0  0  0  0  0
    9.9515   -7.3773    0.0000 C   0  0  0  0  0  0  0  0  0  0  0  0
   10.4522   -4.7755    0.0000 N   0  0  0  0  0  0  0  0  0  0  0  0
   11.4536   -6.5100    0.0000 O   0  0  0  0  0  0  0  0  0  0  0  0
   10.4522   -8.2444    0.0000 O   0  0  0  0  0  0  0  0  0  0  0  0
    8.4493   -8.2444    0.0000 C   0  0  0  0  0  0  0  0  0  0  0  0
    8.9500   -9.1117    0.0000 O   0  0  0  0  0  0  0  0  0  0  0  0
    7.5837   -1.2698    0.0000 R#  0  0  0  0  0  0  0  0  0  0  0  0
   10.4523   -9.2457    0.0000 C   0  0  0  0  0  0  0  0  0  0  0  0
   11.3195   -9.7464    0.0000 C   0  0  0  0  0  0  0  0  0  0  0  0
    9.5849   -9.7466    0.0000 O   0  0  0  0  0  0  0  0  0  0  0  0
   11.3195  -10.7480    0.0000 C   0  0  0  0  0  0  0  0  0  0  0  0
    9.5849  -10.7481    0.0000 C   0  0  0  0  0  0  0  0  0  0  0  0
   10.4522  -11.2488    0.0000 C   0  0  0  0  0  0  0  0  0  0  0  0
   12.1866   -9.2458    0.0000 O   0  0  0  0  0  0  0  0  0  0  0  0
   12.1866  -11.2487    0.0000 O   0  0  0  0  0  0  0  0  0  0  0  0
   10.4522  -12.2502    0.0000 O   0  0  0  0  0  0  0  0  0  0  0  0
    8.7176  -11.2488    0.0000 C   0  0  0  0  0  0  0  0  0  0  0  0
    8.7177  -12.2501    0.0000 O   0  0  0  0  0  0  0  0  0  0  0  0
    8.2170  -13.1173    0.0000 C   0  0  0  0  0  0  0  0  0  0  0  0
    8.7178  -13.9846    0.0000 C   0  0  0  0  0  0  0  0  0  0  0  0
    7.2156  -13.1175    0.0000 O   0  0  0  0  0  0  0  0  0  0  0  0
    8.2169  -14.8520    0.0000 C   0  0  0  0  0  0  0  0  0  0  0  0
    6.7149  -13.9847    0.0000 C   0  0  0  0  0  0  0  0  0  0  0  0
    7.2155  -14.8520    0.0000 C   0  0  0  0  0  0  0  0  0  0  0  0
    9.7191  -13.9846    0.0000 O   0  0  0  0  0  0  0  0  0  0  0  0
    8.7176  -15.7192    0.0000 O   0  0  0  0  0  0  0  0  0  0  0  0
    6.7147  -15.7192    0.0000 O   0  0  0  0  0  0  0  0  0  0  0  0
    5.7133  -13.9847    0.0000 C   0  0  0  0  0  0  0  0  0  0  0  0
    5.2127  -14.8519    0.0000 O   0  0  0  0  0  0  0  0  0  0  0  0
   10.5862  -14.4853    0.0000 C   0  0  0  0  0  0  0  0  0  0  0  0
   11.4535  -13.9844    0.0000 C   0  0  0  0  0  0  0  0  0  0  0  0
   10.5864  -15.4868    0.0000 O   0  0  0  0  0  0  0  0  0  0  0  0
   12.3208  -14.4854    0.0000 C   0  0  0  0  0  0  0  0  0  0  0  0
   11.4536  -15.9875    0.0000 C   0  0  0  0  0  0  0  0  0  0  0  0
   12.3209  -15.4867    0.0000 C   0  0  0  0  0  0  0  0  0  0  0  0
   11.4535  -12.9833    0.0000 O   0  0  0  0  0  0  0  0  0  0  0  0
   13.1880  -13.9847    0.0000 O   0  0  0  0  0  0  0  0  0  0  0  0
   13.1880  -15.9875    0.0000 O   0  0  0  0  0  0  0  0  0  0  0  0
   11.4536  -16.9890    0.0000 C   0  0  0  0  0  0  0  0  0  0  0  0
   12.3208  -17.4897    0.0000 O   0  0  0  0  0  0  0  0  0  0  0  0
   12.7753  -18.3818    0.0000 P   0  0  0  0  0  0  0  0  0  0  0  0
   13.1306  -19.1786    0.0000 O   0  0  0  0  0  0  0  0  0  0  0  0
   11.8629  -18.6925    0.0000 O   0  0  0  0  0  0  0  0  0  0  0  0
   13.6902  -17.9746    0.0000 O   0  0  0  0  0  0  0  0  0  0  0  0
   14.5574  -18.4753    0.0000 C   0  0  0  0  0  0  0  0  0  0  0  0
   15.4248  -17.9746    0.0000 C   0  0  0  0  0  0  0  0  0  0  0  0
   16.2920  -18.4753    0.0000 N   0  0  0  0  0  0  0  0  0  0  0  0
    4.2113  -14.8519    0.0000 R#  0  0  0  0  0  0  0  0  0  0  0  0
   12.3208  -12.4826    0.0000 R#  0  0  0  0  0  0  0  0  0  0  0  0
   13.1015   -9.6532    0.0000 R#  0  0  0  0  0  0  0  0  0  0  0  0
   13.1391  -10.9393    0.0000 R#  0  0  0  0  0  0  0  0  0  0  0  0
    9.5761  -12.7956    0.0000 R#  0  0  0  0  0  0  0  0  0  0  0  0
    9.3159   -3.2763    0.0000 P   0  0  0  0  0  0  0  0  0  0  0  0
   10.1848   -2.7782    0.0000 O   0  0  0  0  0  0  0  0  0  0  0  0
    9.3129   -4.2776    0.0000 O   0  0  0  0  0  0  0  0  0  0  0  0
    9.3159   -2.2750    0.0000 O   0  0  0  0  0  0  0  0  0  0  0  0
   11.0505   -3.2816    0.0000 C   0  0  0  0  0  0  0  0  0  0  0  0
   11.9192   -2.7836    0.0000 C   0  0  0  0  0  0  0  0  0  0  0  0
   12.7848   -3.2870    0.0000 C   0  0  0  0  0  0  0  0  0  0  0  0
   13.6538   -2.7889    0.0000 O   0  0  0  0  0  0  0  0  0  0  0  0
   11.9224   -1.7822    0.0000 N   0  0  0  0  0  0  0  0  0  0  0  0
   12.7895   -1.2816    0.0000 C   0  0  0  0  0  0  0  0  0  0  0  0
   12.7897   -0.2802    0.0000 R#  0  0  0  0  0  0  0  0  0  0  0  0
   14.5195   -3.2923    0.0000 R#  0  0  0  0  0  0  0  0  0  0  0  0
   13.6567   -1.7823    0.0000 O   0  0  0  0  0  0  0  0  0  0  0  0
   12.7818   -4.2885    0.0000 O   0  0  0  0  0  0  0  0  0  0  0  0
   17.1593  -17.9746    0.0000 C   0  0  0  0  0  0  0  0  0  0  0  0
   17.1591  -16.9732    0.0000 O   0  0  0  0  0  0  0  0  0  0  0  0
   18.0265  -18.4754    0.0000 C   0  0  0  0  0  0  0  0  0  0  0  0
   18.0264  -19.4768    0.0000 N   0  0  0  0  0  0  0  0  0  0  0  0
   18.9188  -18.0207    0.0000 C   0  0  0  0  0  0  0  0  0  0  0  0
   19.7860  -18.5214    0.0000 C   0  0  0  0  0  0  0  0  0  0  0  0
   20.6533  -18.0207    0.0000 O   0  0  0  0  0  0  0  0  0  0  0  0
   19.7860  -19.5229    0.0000 O   0  0  0  0  0  0  0  0  0  0  0  0
  1  2  1  0
  1  6  1  0
  2  3  1  0
  3  4  1  0
  4  5  1  0
  5  6  1  0
  1  7  1  6
  6  8  1  1
  5  9  1  6
  3 10  1  1
  2 11  1  1
  4 12  1  1
 13 19  1  6
 14 13  1  0
 14 15  1  0
 13 16  1  0
 16 20  1  1
 15 17  1  0
 17 22  1  1
 16 18  1  0
 17 18  1  0
 18 21  1  6
 22 23  1  0
 14  7  1  6
 10 24  1  0
 25 26  1  0
 25 27  1  0
 26 28  1  0
 27 29  1  0
 28 30  1  0
 29 30  1  0
 26 31  1  1
 28 32  1  1
 30 33  1  6
 29 34  1  1
 35 34  1  0
 36 37  1  0
 36 38  1  0
 37 39  1  0
 38 40  1  0
 39 41  1  0
 40 41  1  0
 37 42  1  1
 39 43  1  1
 41 44  1  6
 40 45  1  1
 46 45  1  0
 36 35  1  6
 47 48  1  0
 47 49  1  0
 48 50  1  0
 49 51  1  0
 50 52  1  0
 51 52  1  0
 48 53  1  1
 50 54  1  1
 52 55  1  6
 51 56  1  1
 57 56  1  0
 47 42  1  6
 25 21  1  6
 58 59  1  0
 58 60  2  0
 58 61  1  0
 62 63  1  0
 61 62  1  0
 63 64  1  0
 57 58  1  0
 46 65  1  0
 53 66  1  0
 31 67  1  0
 32 68  1  0
 33 69  1  0
 70 71  1  0
 70 72  2  0
 70 73  1  0
 71 74  1  0
 75 74  1  6
 75 76  1  0
 76 77  1  0
 75 78  1  0
 78 79  1  0
 79 80  1  0
 77 81  1  0
 79 82  2  0
 76 83  1  1
 11 70  1  0
 86 87  1  6
 86 84  1  0
 84 85  2  0
 86 88  1  0
 64 84  1  0
 89 90  2  0
 88 89  1  0
 89 91  1  0
M  RGP  8  24   3  65   7  66   8  67   4  68   5  69   6  80   2  81   1
V   24 *
V   65 *
V   66 *
V   67 *
V   68 *
V   69 *
V   80 *
V   81 *
M  END
>  <ChEBI ID>  (163) 
CHEBI:143803

>  <ChEBI Name>  (163) 
GIPC-anchor amidated L-aspartate residue(2-)

>  <Star>  (163) 
2

>  <Definition>  (163) 
A GIPC-anchor amidated amino acid where R1 represents the shingoid base, R2 is an acyl group, R3 can be an acyl group or an H, R4-8 can be other sugar groups, phosphoethanolamine or H.

>  <SMILES>  (163) 
[C@@H]1([C@@H]([C@@H]([C@@H]([C@H]([C@@H]1O)O)O)O*)OP(OC[C@@H]([C@@H](O*)O)NC(*)=O)(=O)[O-])O[C@@H]2[C@H]([NH3+])[C@@H](O)[C@@H]([C@H](O2)CO)O[C@@H]3[C@H]([C@H]([C@@H]([C@H](O3)CO[C@@H]4[C@H]([C@H]([C@@H]([C@H](O4)CO*)O)O)O[C@@H]5[C@H]([C@H]([C@@H]([C@H](O5)COP([O-])(=O)OCCNC([C@@H](N*)CC(=O)[O-])=O)O)O)O*)O*)O*)O*

>  <Formulae>  (163) 
C40H61N4O37P2R8

>  <Charge>  (163) 
-2

>  <Mass>  (163) 
1251.866

>  <Monoisotopic Mass>  (163) 
1251.24899

>  <Synonyms>  (163) 
a GIPC-anchor amidated L-aspartate residue
glycosylinositolphosphoceramide-anchor amidated L-aspartate residue(2-)

>  <PubChem Database Links>  (163) 
SID: 85343442

>  <Last Modified>  (163) 
06 Nov 2019

$$$$

     RDKit          2D

 88 92  0  0  1  0  0  0  0  0999 V2000
    7.5825   -4.2746    0.0000 C   0  0  0  0  0  0  0  0  0  0  0  0
    7.5831   -3.2735    0.0000 C   0  0  0  0  0  0  0  0  0  0  0  0
    6.7159   -2.7722    0.0000 C   0  0  0  0  0  0  0  0  0  0  0  0
    5.8486   -3.2723    0.0000 C   0  0  0  0  0  0  0  0  0  0  0  0
    5.8480   -4.2739    0.0000 C   0  0  0  0  0  0  0  0  0  0  0  0
    6.7150   -4.7751    0.0000 C   0  0  0  0  0  0  0  0  0  0  0  0
    8.4497   -4.7757    0.0000 O   0  0  0  0  0  0  0  0  0  0  0  0
    6.7144   -5.7762    0.0000 O   0  0  0  0  0  0  0  0  0  0  0  0
    4.9805   -4.7740    0.0000 O   0  0  0  0  0  0  0  0  0  0  0  0
    6.7167   -1.7705    0.0000 O   0  0  0  0  0  0  0  0  0  0  0  0
    8.4506   -2.7729    0.0000 O   0  0  0  0  0  0  0  0  0  0  0  0
    4.9812   -2.7711    0.0000 O   0  0  0  0  0  0  0  0  0  0  0  0
    9.9519   -5.6429    0.0000 C   0  0  0  0  0  0  0  0  0  0  0  0
    8.9504   -5.6429    0.0000 C   0  0  0  0  0  0  0  0  0  0  0  0
    8.4497   -6.5103    0.0000 O   0  0  0  0  0  0  0  0  0  0  0  0
   10.4526   -6.5103    0.0000 C   0  0  0  0  0  0  0  0  0  0  0  0
    8.9504   -7.3776    0.0000 C   0  0  0  0  0  0  0  0  0  0  0  0
    9.9519   -7.3776    0.0000 C   0  0  0  0  0  0  0  0  0  0  0  0
   10.4526   -4.7757    0.0000 N   0  0  0  0  0  0  0  0  0  0  0  0
   11.4541   -6.5103    0.0000 O   0  0  0  0  0  0  0  0  0  0  0  0
   10.4526   -8.2448    0.0000 O   0  0  0  0  0  0  0  0  0  0  0  0
    8.4497   -8.2448    0.0000 C   0  0  0  0  0  0  0  0  0  0  0  0
    8.9504   -9.1121    0.0000 O   0  0  0  0  0  0  0  0  0  0  0  0
    7.5841   -1.2699    0.0000 R#  0  0  0  0  0  0  0  0  0  0  0  0
   10.4528   -9.2461    0.0000 C   0  0  0  0  0  0  0  0  0  0  0  0
   11.3200   -9.7469    0.0000 C   0  0  0  0  0  0  0  0  0  0  0  0
    9.5853   -9.7470    0.0000 O   0  0  0  0  0  0  0  0  0  0  0  0
   11.3200  -10.7485    0.0000 C   0  0  0  0  0  0  0  0  0  0  0  0
    9.5853  -10.7486    0.0000 C   0  0  0  0  0  0  0  0  0  0  0  0
   10.4526  -11.2493    0.0000 C   0  0  0  0  0  0  0  0  0  0  0  0
   12.1872   -9.2463    0.0000 O   0  0  0  0  0  0  0  0  0  0  0  0
   12.1872  -11.2492    0.0000 O   0  0  0  0  0  0  0  0  0  0  0  0
   10.4526  -12.2508    0.0000 O   0  0  0  0  0  0  0  0  0  0  0  0
    8.7180  -11.2493    0.0000 C   0  0  0  0  0  0  0  0  0  0  0  0
    8.7181  -12.2507    0.0000 O   0  0  0  0  0  0  0  0  0  0  0  0
    8.2174  -13.1179    0.0000 C   0  0  0  0  0  0  0  0  0  0  0  0
    8.7182  -13.9852    0.0000 C   0  0  0  0  0  0  0  0  0  0  0  0
    7.2159  -13.1181    0.0000 O   0  0  0  0  0  0  0  0  0  0  0  0
    8.2172  -14.8527    0.0000 C   0  0  0  0  0  0  0  0  0  0  0  0
    6.7152  -13.9853    0.0000 C   0  0  0  0  0  0  0  0  0  0  0  0
    7.2158  -14.8527    0.0000 C   0  0  0  0  0  0  0  0  0  0  0  0
    9.7196  -13.9852    0.0000 O   0  0  0  0  0  0  0  0  0  0  0  0
    8.7180  -15.7199    0.0000 O   0  0  0  0  0  0  0  0  0  0  0  0
    6.7150  -15.7199    0.0000 O   0  0  0  0  0  0  0  0  0  0  0  0
    5.7136  -13.9853    0.0000 C   0  0  0  0  0  0  0  0  0  0  0  0
    5.2130  -14.8525    0.0000 O   0  0  0  0  0  0  0  0  0  0  0  0
   10.5867  -14.4859    0.0000 C   0  0  0  0  0  0  0  0  0  0  0  0
   11.4540  -13.9851    0.0000 C   0  0  0  0  0  0  0  0  0  0  0  0
   10.5869  -15.4875    0.0000 O   0  0  0  0  0  0  0  0  0  0  0  0
   12.3213  -14.4861    0.0000 C   0  0  0  0  0  0  0  0  0  0  0  0
   11.4541  -15.9883    0.0000 C   0  0  0  0  0  0  0  0  0  0  0  0
   12.3214  -15.4874    0.0000 C   0  0  0  0  0  0  0  0  0  0  0  0
   11.4540  -12.9839    0.0000 O   0  0  0  0  0  0  0  0  0  0  0  0
   13.1886  -13.9853    0.0000 O   0  0  0  0  0  0  0  0  0  0  0  0
   13.1886  -15.9883    0.0000 O   0  0  0  0  0  0  0  0  0  0  0  0
   11.4541  -16.9897    0.0000 C   0  0  0  0  0  0  0  0  0  0  0  0
   12.3213  -17.4905    0.0000 O   0  0  0  0  0  0  0  0  0  0  0  0
   12.7759  -18.3827    0.0000 P   0  0  0  0  0  0  0  0  0  0  0  0
   13.1312  -19.1795    0.0000 O   0  0  0  0  0  0  0  0  0  0  0  0
   11.8634  -18.6933    0.0000 O   0  0  0  0  0  0  0  0  0  0  0  0
   13.6908  -17.9754    0.0000 O   0  0  0  0  0  0  0  0  0  0  0  0
   14.5580  -18.4761    0.0000 C   0  0  0  0  0  0  0  0  0  0  0  0
   15.4255  -17.9754    0.0000 C   0  0  0  0  0  0  0  0  0  0  0  0
   16.2927  -18.4761    0.0000 N   0  0  0  0  0  0  0  0  0  0  0  0
    4.2115  -14.8525    0.0000 R#  0  0  0  0  0  0  0  0  0  0  0  0
   12.3213  -12.4831    0.0000 R#  0  0  0  0  0  0  0  0  0  0  0  0
   13.1021   -9.6537    0.0000 R#  0  0  0  0  0  0  0  0  0  0  0  0
   13.1397  -10.9398    0.0000 R#  0  0  0  0  0  0  0  0  0  0  0  0
    9.5766  -12.7962    0.0000 R#  0  0  0  0  0  0  0  0  0  0  0  0
    9.3163   -3.2764    0.0000 P   0  0  0  0  0  0  0  0  0  0  0  0
   10.1852   -2.7784    0.0000 O   0  0  0  0  0  0  0  0  0  0  0  0
    9.3133   -4.2778    0.0000 O   0  0  0  0  0  0  0  0  0  0  0  0
    9.3163   -2.2751    0.0000 O   0  0  0  0  0  0  0  0  0  0  0  0
   11.0510   -3.2818    0.0000 C   0  0  0  0  0  0  0  0  0  0  0  0
   11.9198   -2.7837    0.0000 C   0  0  0  0  0  0  0  0  0  0  0  0
   12.7854   -3.2871    0.0000 C   0  0  0  0  0  0  0  0  0  0  0  0
   13.6544   -2.7891    0.0000 O   0  0  0  0  0  0  0  0  0  0  0  0
   11.9229   -1.7822    0.0000 N   0  0  0  0  0  0  0  0  0  0  0  0
   12.7901   -1.2816    0.0000 C   0  0  0  0  0  0  0  0  0  0  0  0
   12.7902   -0.2802    0.0000 R#  0  0  0  0  0  0  0  0  0  0  0  0
   14.5202   -3.2925    0.0000 R#  0  0  0  0  0  0  0  0  0  0  0  0
   13.6573   -1.7824    0.0000 O   0  0  0  0  0  0  0  0  0  0  0  0
   12.7824   -4.2887    0.0000 O   0  0  0  0  0  0  0  0  0  0  0  0
   17.1600  -17.9754    0.0000 C   0  0  0  0  0  0  0  0  0  0  0  0
   17.1599  -16.9739    0.0000 O   0  0  0  0  0  0  0  0  0  0  0  0
   18.0274  -18.4763    0.0000 C   0  0  0  0  0  0  0  0  0  0  0  0
   18.0272  -19.4777    0.0000 N   0  0  0  0  0  0  0  0  0  0  0  0
   18.9197  -18.0215    0.0000 C   0  0  0  0  0  0  0  0  0  0  0  0
  1  2  1  0
  1  6  1  0
  2  3  1  0
  3  4  1  0
  4  5  1  0
  5  6  1  0
  1  7  1  6
  6  8  1  1
  5  9  1  6
  3 10  1  1
  2 11  1  1
  4 12  1  1
 13 19  1  6
 14 13  1  0
 14 15  1  0
 13 16  1  0
 16 20  1  1
 15 17  1  0
 17 22  1  1
 16 18  1  0
 17 18  1  0
 18 21  1  6
 22 23  1  0
 14  7  1  6
 10 24  1  0
 25 26  1  0
 25 27  1  0
 26 28  1  0
 27 29  1  0
 28 30  1  0
 29 30  1  0
 26 31  1  1
 28 32  1  1
 30 33  1  6
 29 34  1  1
 35 34  1  0
 36 37  1  0
 36 38  1  0
 37 39  1  0
 38 40  1  0
 39 41  1  0
 40 41  1  0
 37 42  1  1
 39 43  1  1
 41 44  1  6
 40 45  1  1
 46 45  1  0
 36 35  1  6
 47 48  1  0
 47 49  1  0
 48 50  1  0
 49 51  1  0
 50 52  1  0
 51 52  1  0
 48 53  1  1
 50 54  1  1
 52 55  1  6
 51 56  1  1
 57 56  1  0
 47 42  1  6
 25 21  1  6
 58 59  1  0
 58 60  2  0
 58 61  1  0
 62 63  1  0
 61 62  1  0
 63 64  1  0
 57 58  1  0
 46 65  1  0
 53 66  1  0
 31 67  1  0
 32 68  1  0
 33 69  1  0
 70 71  1  0
 70 72  2  0
 70 73  1  0
 71 74  1  0
 75 74  1  6
 75 76  1  0
 76 77  1  0
 75 78  1  0
 78 79  1  0
 79 80  1  0
 77 81  1  0
 79 82  2  0
 76 83  1  1
 11 70  1  0
 86 87  1  0
 86 84  1  0
 84 85  2  0
 86 88  1  6
 64 84  1  0
M  RGP  8  24   3  65   7  66   8  67   4  68   5  69   6  80   2  81   1
V   24 *
V   65 *
V   66 *
V   67 *
V   68 *
V   69 *
V   80 *
V   81 *
M  END
>  <ChEBI ID>  (164) 
CHEBI:143804

>  <ChEBI Name>  (164) 
GIPC-anchor amidated L-alanine residue(1-)

>  <Star>  (164) 
2

>  <Definition>  (164) 
A GIPC-anchor amidated amino acid where R1 represents the shingoid base, R2 is an acyl group, R3 can be an acyl group or an H, R4-8 can be other sugar groups, phosphoethanolamine or H.

>  <SMILES>  (164) 
[C@@H]1([C@@H]([C@@H]([C@@H]([C@H]([C@@H]1O)O)O)O*)OP(OC[C@@H]([C@@H](O*)O)NC(*)=O)(=O)[O-])O[C@@H]2[C@H]([NH3+])[C@@H](O)[C@@H]([C@H](O2)CO)O[C@@H]3[C@H]([C@H]([C@@H]([C@H](O3)CO[C@@H]4[C@H]([C@H]([C@@H]([C@H](O4)CO*)O)O)O[C@@H]5[C@H]([C@H]([C@@H]([C@H](O5)COP([O-])(=O)OCCNC([C@@H](N*)C)=O)O)O)O*)O*)O*)O*

>  <Formulae>  (164) 
C39H62N4O35P2R8

>  <Charge>  (164) 
-1

>  <Mass>  (164) 
1208.865

>  <Monoisotopic Mass>  (164) 
1208.26698

>  <Synonyms>  (164) 
a GIPC-anchor amidated L-alanine residue
glycosylinositolphosphoceramide-anchor amidated L-alanine residue(1-)

>  <PubMed citation Links>  (164) 
12626404

>  <PubChem Database Links>  (164) 
SID: 85343443

$$$$

     RDKit          2D

 87 91  0  0  1  0  0  0  0  0999 V2000
    7.5826   -4.2747    0.0000 C   0  0  0  0  0  0  0  0  0  0  0  0
    7.5832   -3.2736    0.0000 C   0  0  0  0  0  0  0  0  0  0  0  0
    6.7160   -2.7722    0.0000 C   0  0  0  0  0  0  0  0  0  0  0  0
    5.8487   -3.2724    0.0000 C   0  0  0  0  0  0  0  0  0  0  0  0
    5.8481   -4.2740    0.0000 C   0  0  0  0  0  0  0  0  0  0  0  0
    6.7152   -4.7752    0.0000 C   0  0  0  0  0  0  0  0  0  0  0  0
    8.4498   -4.7758    0.0000 O   0  0  0  0  0  0  0  0  0  0  0  0
    6.7145   -5.7763    0.0000 O   0  0  0  0  0  0  0  0  0  0  0  0
    4.9806   -4.7741    0.0000 O   0  0  0  0  0  0  0  0  0  0  0  0
    6.7169   -1.7705    0.0000 O   0  0  0  0  0  0  0  0  0  0  0  0
    8.4507   -2.7730    0.0000 O   0  0  0  0  0  0  0  0  0  0  0  0
    4.9813   -2.7711    0.0000 O   0  0  0  0  0  0  0  0  0  0  0  0
    9.9521   -5.6430    0.0000 C   0  0  0  0  0  0  0  0  0  0  0  0
    8.9506   -5.6430    0.0000 C   0  0  0  0  0  0  0  0  0  0  0  0
    8.4498   -6.5104    0.0000 O   0  0  0  0  0  0  0  0  0  0  0  0
   10.4528   -6.5104    0.0000 C   0  0  0  0  0  0  0  0  0  0  0  0
    8.9506   -7.3777    0.0000 C   0  0  0  0  0  0  0  0  0  0  0  0
    9.9521   -7.3777    0.0000 C   0  0  0  0  0  0  0  0  0  0  0  0
   10.4528   -4.7758    0.0000 N   0  0  0  0  0  0  0  0  0  0  0  0
   11.4543   -6.5104    0.0000 O   0  0  0  0  0  0  0  0  0  0  0  0
   10.4528   -8.2449    0.0000 O   0  0  0  0  0  0  0  0  0  0  0  0
    8.4498   -8.2449    0.0000 C   0  0  0  0  0  0  0  0  0  0  0  0
    8.9506   -9.1123    0.0000 O   0  0  0  0  0  0  0  0  0  0  0  0
    7.5842   -1.2699    0.0000 R#  0  0  0  0  0  0  0  0  0  0  0  0
   10.4529   -9.2463    0.0000 C   0  0  0  0  0  0  0  0  0  0  0  0
   11.3202   -9.7470    0.0000 C   0  0  0  0  0  0  0  0  0  0  0  0
    9.5855   -9.7472    0.0000 O   0  0  0  0  0  0  0  0  0  0  0  0
   11.3202  -10.7486    0.0000 C   0  0  0  0  0  0  0  0  0  0  0  0
    9.5855  -10.7488    0.0000 C   0  0  0  0  0  0  0  0  0  0  0  0
   10.4528  -11.2495    0.0000 C   0  0  0  0  0  0  0  0  0  0  0  0
   12.1874   -9.2464    0.0000 O   0  0  0  0  0  0  0  0  0  0  0  0
   12.1874  -11.2494    0.0000 O   0  0  0  0  0  0  0  0  0  0  0  0
   10.4528  -12.2510    0.0000 O   0  0  0  0  0  0  0  0  0  0  0  0
    8.7181  -11.2495    0.0000 C   0  0  0  0  0  0  0  0  0  0  0  0
    8.7182  -12.2509    0.0000 O   0  0  0  0  0  0  0  0  0  0  0  0
    8.2175  -13.1181    0.0000 C   0  0  0  0  0  0  0  0  0  0  0  0
    8.7184  -13.9854    0.0000 C   0  0  0  0  0  0  0  0  0  0  0  0
    7.2160  -13.1183    0.0000 O   0  0  0  0  0  0  0  0  0  0  0  0
    8.2174  -14.8529    0.0000 C   0  0  0  0  0  0  0  0  0  0  0  0
    6.7153  -13.9856    0.0000 C   0  0  0  0  0  0  0  0  0  0  0  0
    7.2159  -14.8529    0.0000 C   0  0  0  0  0  0  0  0  0  0  0  0
    9.7197  -13.9854    0.0000 O   0  0  0  0  0  0  0  0  0  0  0  0
    8.7181  -15.7201    0.0000 O   0  0  0  0  0  0  0  0  0  0  0  0
    6.7152  -15.7201    0.0000 O   0  0  0  0  0  0  0  0  0  0  0  0
    5.7137  -13.9856    0.0000 C   0  0  0  0  0  0  0  0  0  0  0  0
    5.2131  -14.8528    0.0000 O   0  0  0  0  0  0  0  0  0  0  0  0
   10.5868  -14.4862    0.0000 C   0  0  0  0  0  0  0  0  0  0  0  0
   11.4542  -13.9853    0.0000 C   0  0  0  0  0  0  0  0  0  0  0  0
   10.5871  -15.4878    0.0000 O   0  0  0  0  0  0  0  0  0  0  0  0
   12.3215  -14.4863    0.0000 C   0  0  0  0  0  0  0  0  0  0  0  0
   11.4543  -15.9885    0.0000 C   0  0  0  0  0  0  0  0  0  0  0  0
   12.3216  -15.4877    0.0000 C   0  0  0  0  0  0  0  0  0  0  0  0
   11.4542  -12.9841    0.0000 O   0  0  0  0  0  0  0  0  0  0  0  0
   13.1889  -13.9856    0.0000 O   0  0  0  0  0  0  0  0  0  0  0  0
   13.1889  -15.9885    0.0000 O   0  0  0  0  0  0  0  0  0  0  0  0
   11.4543  -16.9900    0.0000 C   0  0  0  0  0  0  0  0  0  0  0  0
   12.3215  -17.4907    0.0000 O   0  0  0  0  0  0  0  0  0  0  0  0
   12.7761  -18.3830    0.0000 P   0  0  0  0  0  0  0  0  0  0  0  0
   13.1314  -19.1798    0.0000 O   0  0  0  0  0  0  0  0  0  0  0  0
   11.8636  -18.6936    0.0000 O   0  0  0  0  0  0  0  0  0  0  0  0
   13.6911  -17.9757    0.0000 O   0  0  0  0  0  0  0  0  0  0  0  0
   14.5583  -18.4764    0.0000 C   0  0  0  0  0  0  0  0  0  0  0  0
   15.4258  -17.9757    0.0000 C   0  0  0  0  0  0  0  0  0  0  0  0
   16.2930  -18.4764    0.0000 N   0  0  0  0  0  0  0  0  0  0  0  0
    4.2116  -14.8528    0.0000 R#  0  0  0  0  0  0  0  0  0  0  0  0
   12.3215  -12.4833    0.0000 R#  0  0  0  0  0  0  0  0  0  0  0  0
   13.1023   -9.6538    0.0000 R#  0  0  0  0  0  0  0  0  0  0  0  0
   13.1399  -10.9400    0.0000 R#  0  0  0  0  0  0  0  0  0  0  0  0
    9.5767  -12.7964    0.0000 R#  0  0  0  0  0  0  0  0  0  0  0  0
    9.3165   -3.2765    0.0000 P   0  0  0  0  0  0  0  0  0  0  0  0
   10.1854   -2.7784    0.0000 O   0  0  0  0  0  0  0  0  0  0  0  0
    9.3134   -4.2778    0.0000 O   0  0  0  0  0  0  0  0  0  0  0  0
    9.3165   -2.2751    0.0000 O   0  0  0  0  0  0  0  0  0  0  0  0
   11.0512   -3.2818    0.0000 C   0  0  0  0  0  0  0  0  0  0  0  0
   11.9200   -2.7838    0.0000 C   0  0  0  0  0  0  0  0  0  0  0  0
   12.7856   -3.2872    0.0000 C   0  0  0  0  0  0  0  0  0  0  0  0
   13.6546   -2.7891    0.0000 O   0  0  0  0  0  0  0  0  0  0  0  0
   11.9231   -1.7823    0.0000 N   0  0  0  0  0  0  0  0  0  0  0  0
   12.7903   -1.2817    0.0000 C   0  0  0  0  0  0  0  0  0  0  0  0
   12.7905   -0.2802    0.0000 R#  0  0  0  0  0  0  0  0  0  0  0  0
   14.5204   -3.2925    0.0000 R#  0  0  0  0  0  0  0  0  0  0  0  0
   13.6576   -1.7824    0.0000 O   0  0  0  0  0  0  0  0  0  0  0  0
   12.7826   -4.2888    0.0000 O   0  0  0  0  0  0  0  0  0  0  0  0
   17.1603  -17.9757    0.0000 C   0  0  0  0  0  0  0  0  0  0  0  0
   17.1602  -16.9742    0.0000 O   0  0  0  0  0  0  0  0  0  0  0  0
   18.0277  -18.4766    0.0000 C   0  0  0  0  0  0  0  0  0  0  0  0
   18.0275  -19.4781    0.0000 N   0  0  0  0  0  0  0  0  0  0  0  0
  1  2  1  0
  1  6  1  0
  2  3  1  0
  3  4  1  0
  4  5  1  0
  5  6  1  0
  1  7  1  6
  6  8  1  1
  5  9  1  6
  3 10  1  1
  2 11  1  1
  4 12  1  1
 13 19  1  6
 14 13  1  0
 14 15  1  0
 13 16  1  0
 16 20  1  1
 15 17  1  0
 17 22  1  1
 16 18  1  0
 17 18  1  0
 18 21  1  6
 22 23  1  0
 14  7  1  6
 10 24  1  0
 25 26  1  0
 25 27  1  0
 26 28  1  0
 27 29  1  0
 28 30  1  0
 29 30  1  0
 26 31  1  1
 28 32  1  1
 30 33  1  6
 29 34  1  1
 35 34  1  0
 36 37  1  0
 36 38  1  0
 37 39  1  0
 38 40  1  0
 39 41  1  0
 40 41  1  0
 37 42  1  1
 39 43  1  1
 41 44  1  6
 40 45  1  1
 46 45  1  0
 36 35  1  6
 47 48  1  0
 47 49  1  0
 48 50  1  0
 49 51  1  0
 50 52  1  0
 51 52  1  0
 48 53  1  1
 50 54  1  1
 52 55  1  6
 51 56  1  1
 57 56  1  0
 47 42  1  6
 25 21  1  6
 58 59  1  0
 58 60  2  0
 58 61  1  0
 62 63  1  0
 61 62  1  0
 63 64  1  0
 57 58  1  0
 46 65  1  0
 53 66  1  0
 31 67  1  0
 32 68  1  0
 33 69  1  0
 70 71  1  0
 70 72  2  0
 70 73  1  0
 71 74  1  0
 75 74  1  6
 75 76  1  0
 76 77  1  0
 75 78  1  0
 78 79  1  0
 79 80  1  0
 77 81  1  0
 79 82  2  0
 76 83  1  1
 11 70  1  0
 86 87  1  0
 86 84  1  0
 84 85  2  0
 64 84  1  0
M  RGP  8  24   3  65   7  66   8  67   4  68   5  69   6  80   2  81   1
V   24 *
V   65 *
V   66 *
V   67 *
V   68 *
V   69 *
V   80 *
V   81 *
M  END
>  <ChEBI ID>  (165) 
CHEBI:143805

>  <ChEBI Name>  (165) 
GIPC-anchor amidated glycine residue(1-)

>  <Star>  (165) 
2

>  <Definition>  (165) 
A GIPC-anchor amidated amino acid where R1 represents the shingoid base, R2 is an acyl group, R3 can be an acyl group or an H, R4-8 can be other sugar groups, phosphoethanolamine or H.

>  <SMILES>  (165) 
[C@@H]1([C@@H]([C@@H]([C@@H]([C@H]([C@@H]1O)O)O)O*)OP(OC[C@@H]([C@@H](O*)O)NC(*)=O)(=O)[O-])O[C@@H]2[C@H]([NH3+])[C@@H](O)[C@@H]([C@H](O2)CO)O[C@@H]3[C@H]([C@H]([C@@H]([C@H](O3)CO[C@@H]4[C@H]([C@H]([C@@H]([C@H](O4)CO*)O)O)O[C@@H]5[C@H]([C@H]([C@@H]([C@H](O5)COP([O-])(=O)OCCNC(CN*)=O)O)O)O*)O*)O*)O*

>  <Formulae>  (165) 
C38H60N4O35P2R8

>  <Charge>  (165) 
-1

>  <Mass>  (165) 
1194.838

>  <Monoisotopic Mass>  (165) 
1194.25133

>  <Synonyms>  (165) 
a GIPC-anchor amidated glycine residue
glycosylinositolphosphoceramide-anchor amidated glycine residue(1-)

>  <PubMed citation Links>  (165) 
12626404
8404891

>  <PubChem Database Links>  (165) 
SID: 85343444

$$$$

     RDKit          2D

 89 93  0  0  1  0  0  0  0  0999 V2000
    7.5824   -4.2746    0.0000 C   0  0  0  0  0  0  0  0  0  0  0  0
    7.5830   -3.2735    0.0000 C   0  0  0  0  0  0  0  0  0  0  0  0
    6.7158   -2.7721    0.0000 C   0  0  0  0  0  0  0  0  0  0  0  0
    5.8485   -3.2723    0.0000 C   0  0  0  0  0  0  0  0  0  0  0  0
    5.8479   -4.2738    0.0000 C   0  0  0  0  0  0  0  0  0  0  0  0
    6.7149   -4.7750    0.0000 C   0  0  0  0  0  0  0  0  0  0  0  0
    8.4496   -4.7756    0.0000 O   0  0  0  0  0  0  0  0  0  0  0  0
    6.7143   -5.7761    0.0000 O   0  0  0  0  0  0  0  0  0  0  0  0
    4.9804   -4.7739    0.0000 O   0  0  0  0  0  0  0  0  0  0  0  0
    6.7166   -1.7704    0.0000 O   0  0  0  0  0  0  0  0  0  0  0  0
    8.4504   -2.7729    0.0000 O   0  0  0  0  0  0  0  0  0  0  0  0
    4.9812   -2.7710    0.0000 O   0  0  0  0  0  0  0  0  0  0  0  0
    9.9517   -5.6428    0.0000 C   0  0  0  0  0  0  0  0  0  0  0  0
    8.9503   -5.6428    0.0000 C   0  0  0  0  0  0  0  0  0  0  0  0
    8.4496   -6.5102    0.0000 O   0  0  0  0  0  0  0  0  0  0  0  0
   10.4525   -6.5102    0.0000 C   0  0  0  0  0  0  0  0  0  0  0  0
    8.9503   -7.3775    0.0000 C   0  0  0  0  0  0  0  0  0  0  0  0
    9.9517   -7.3775    0.0000 C   0  0  0  0  0  0  0  0  0  0  0  0
   10.4525   -4.7756    0.0000 N   0  0  0  0  0  0  0  0  0  0  0  0
   11.4539   -6.5102    0.0000 O   0  0  0  0  0  0  0  0  0  0  0  0
   10.4525   -8.2447    0.0000 O   0  0  0  0  0  0  0  0  0  0  0  0
    8.4496   -8.2447    0.0000 C   0  0  0  0  0  0  0  0  0  0  0  0
    8.9503   -9.1120    0.0000 O   0  0  0  0  0  0  0  0  0  0  0  0
    7.5840   -1.2698    0.0000 R#  0  0  0  0  0  0  0  0  0  0  0  0
   10.4526   -9.2460    0.0000 C   0  0  0  0  0  0  0  0  0  0  0  0
   11.3198   -9.7467    0.0000 C   0  0  0  0  0  0  0  0  0  0  0  0
    9.5852   -9.7468    0.0000 O   0  0  0  0  0  0  0  0  0  0  0  0
   11.3198  -10.7483    0.0000 C   0  0  0  0  0  0  0  0  0  0  0  0
    9.5852  -10.7484    0.0000 C   0  0  0  0  0  0  0  0  0  0  0  0
   10.4525  -11.2491    0.0000 C   0  0  0  0  0  0  0  0  0  0  0  0
   12.1870   -9.2461    0.0000 O   0  0  0  0  0  0  0  0  0  0  0  0
   12.1870  -11.2490    0.0000 O   0  0  0  0  0  0  0  0  0  0  0  0
   10.4525  -12.2506    0.0000 O   0  0  0  0  0  0  0  0  0  0  0  0
    8.7178  -11.2491    0.0000 C   0  0  0  0  0  0  0  0  0  0  0  0
    8.7180  -12.2505    0.0000 O   0  0  0  0  0  0  0  0  0  0  0  0
    8.2172  -13.1177    0.0000 C   0  0  0  0  0  0  0  0  0  0  0  0
    8.7181  -13.9850    0.0000 C   0  0  0  0  0  0  0  0  0  0  0  0
    7.2158  -13.1179    0.0000 O   0  0  0  0  0  0  0  0  0  0  0  0
    8.2171  -14.8524    0.0000 C   0  0  0  0  0  0  0  0  0  0  0  0
    6.7151  -13.9851    0.0000 C   0  0  0  0  0  0  0  0  0  0  0  0
    7.2157  -14.8524    0.0000 C   0  0  0  0  0  0  0  0  0  0  0  0
    9.7194  -13.9850    0.0000 O   0  0  0  0  0  0  0  0  0  0  0  0
    8.7178  -15.7196    0.0000 O   0  0  0  0  0  0  0  0  0  0  0  0
    6.7149  -15.7196    0.0000 O   0  0  0  0  0  0  0  0  0  0  0  0
    5.7135  -13.9851    0.0000 C   0  0  0  0  0  0  0  0  0  0  0  0
    5.2129  -14.8523    0.0000 O   0  0  0  0  0  0  0  0  0  0  0  0
   10.5865  -14.4857    0.0000 C   0  0  0  0  0  0  0  0  0  0  0  0
   11.4538  -13.9849    0.0000 C   0  0  0  0  0  0  0  0  0  0  0  0
   10.5867  -15.4873    0.0000 O   0  0  0  0  0  0  0  0  0  0  0  0
   12.3211  -14.4858    0.0000 C   0  0  0  0  0  0  0  0  0  0  0  0
   11.4539  -15.9880    0.0000 C   0  0  0  0  0  0  0  0  0  0  0  0
   12.3212  -15.4872    0.0000 C   0  0  0  0  0  0  0  0  0  0  0  0
   11.4538  -12.9837    0.0000 O   0  0  0  0  0  0  0  0  0  0  0  0
   13.1884  -13.9851    0.0000 O   0  0  0  0  0  0  0  0  0  0  0  0
   13.1884  -15.9880    0.0000 O   0  0  0  0  0  0  0  0  0  0  0  0
   11.4539  -16.9895    0.0000 C   0  0  0  0  0  0  0  0  0  0  0  0
   12.3211  -17.4902    0.0000 O   0  0  0  0  0  0  0  0  0  0  0  0
   12.7757  -18.3824    0.0000 P   0  0  0  0  0  0  0  0  0  0  0  0
   13.1310  -19.1792    0.0000 O   0  0  0  0  0  0  0  0  0  0  0  0
   11.8632  -18.6930    0.0000 O   0  0  0  0  0  0  0  0  0  0  0  0
   13.6906  -17.9751    0.0000 O   0  0  0  0  0  0  0  0  0  0  0  0
   14.5578  -18.4758    0.0000 C   0  0  0  0  0  0  0  0  0  0  0  0
   15.4252  -17.9751    0.0000 C   0  0  0  0  0  0  0  0  0  0  0  0
   16.2924  -18.4758    0.0000 N   0  0  0  0  0  0  0  0  0  0  0  0
    4.2114  -14.8523    0.0000 R#  0  0  0  0  0  0  0  0  0  0  0  0
   12.3211  -12.4829    0.0000 R#  0  0  0  0  0  0  0  0  0  0  0  0
   13.1019   -9.6535    0.0000 R#  0  0  0  0  0  0  0  0  0  0  0  0
   13.1395  -10.9396    0.0000 R#  0  0  0  0  0  0  0  0  0  0  0  0
    9.5764  -12.7960    0.0000 R#  0  0  0  0  0  0  0  0  0  0  0  0
    9.3162   -3.2764    0.0000 P   0  0  0  0  0  0  0  0  0  0  0  0
   10.1851   -2.7783    0.0000 O   0  0  0  0  0  0  0  0  0  0  0  0
    9.3131   -4.2777    0.0000 O   0  0  0  0  0  0  0  0  0  0  0  0
    9.3162   -2.2751    0.0000 O   0  0  0  0  0  0  0  0  0  0  0  0
   11.0508   -3.2817    0.0000 C   0  0  0  0  0  0  0  0  0  0  0  0
   11.9196   -2.7837    0.0000 C   0  0  0  0  0  0  0  0  0  0  0  0
   12.7852   -3.2871    0.0000 C   0  0  0  0  0  0  0  0  0  0  0  0
   13.6542   -2.7890    0.0000 O   0  0  0  0  0  0  0  0  0  0  0  0
   11.9227   -1.7822    0.0000 N   0  0  0  0  0  0  0  0  0  0  0  0
   12.7899   -1.2816    0.0000 C   0  0  0  0  0  0  0  0  0  0  0  0
   12.7900   -0.2802    0.0000 R#  0  0  0  0  0  0  0  0  0  0  0  0
   14.5199   -3.2924    0.0000 R#  0  0  0  0  0  0  0  0  0  0  0  0
   13.6571   -1.7823    0.0000 O   0  0  0  0  0  0  0  0  0  0  0  0
   12.7821   -4.2886    0.0000 O   0  0  0  0  0  0  0  0  0  0  0  0
   17.1598  -17.9751    0.0000 C   0  0  0  0  0  0  0  0  0  0  0  0
   17.1596  -16.9737    0.0000 O   0  0  0  0  0  0  0  0  0  0  0  0
   18.0271  -18.4760    0.0000 C   0  0  0  0  0  0  0  0  0  0  0  0
   18.0270  -19.4774    0.0000 N   0  0  0  0  0  0  0  0  0  0  0  0
   18.9194  -18.0212    0.0000 C   0  0  0  0  0  0  0  0  0  0  0  0
   19.7593  -18.5668    0.0000 O   0  0  0  0  0  0  0  0  0  0  0  0
  1  2  1  0
  1  6  1  0
  2  3  1  0
  3  4  1  0
  4  5  1  0
  5  6  1  0
  1  7  1  6
  6  8  1  1
  5  9  1  6
  3 10  1  1
  2 11  1  1
  4 12  1  1
 13 19  1  6
 14 13  1  0
 14 15  1  0
 13 16  1  0
 16 20  1  1
 15 17  1  0
 17 22  1  1
 16 18  1  0
 17 18  1  0
 18 21  1  6
 22 23  1  0
 14  7  1  6
 10 24  1  0
 25 26  1  0
 25 27  1  0
 26 28  1  0
 27 29  1  0
 28 30  1  0
 29 30  1  0
 26 31  1  1
 28 32  1  1
 30 33  1  6
 29 34  1  1
 35 34  1  0
 36 37  1  0
 36 38  1  0
 37 39  1  0
 38 40  1  0
 39 41  1  0
 40 41  1  0
 37 42  1  1
 39 43  1  1
 41 44  1  6
 40 45  1  1
 46 45  1  0
 36 35  1  6
 47 48  1  0
 47 49  1  0
 48 50  1  0
 49 51  1  0
 50 52  1  0
 51 52  1  0
 48 53  1  1
 50 54  1  1
 52 55  1  6
 51 56  1  1
 57 56  1  0
 47 42  1  6
 25 21  1  6
 58 59  1  0
 58 60  2  0
 58 61  1  0
 62 63  1  0
 61 62  1  0
 63 64  1  0
 57 58  1  0
 46 65  1  0
 53 66  1  0
 31 67  1  0
 32 68  1  0
 33 69  1  0
 70 71  1  0
 70 72  2  0
 70 73  1  0
 71 74  1  0
 75 74  1  6
 75 76  1  0
 76 77  1  0
 75 78  1  0
 78 79  1  0
 79 80  1  0
 77 81  1  0
 79 82  2  0
 76 83  1  1
 11 70  1  0
 86 87  1  6
 86 84  1  0
 84 85  2  0
 88 89  1  0
 86 88  1  0
 64 84  1  0
M  RGP  8  24   3  65   7  66   8  67   4  68   5  69   6  80   2  81   1
V   24 *
V   65 *
V   66 *
V   67 *
V   68 *
V   69 *
V   80 *
V   81 *
M  END
>  <ChEBI ID>  (166) 
CHEBI:143806

>  <ChEBI Name>  (166) 
GIPC-anchor amidated L-serine residue(1-)

>  <Star>  (166) 
2

>  <Definition>  (166) 
A GIPC-anchor amidated amino acid where R1 represents the shingoid base, R2 is an acyl group, R3 can be an acyl group or an H, R4-8 can be other sugar groups, phosphoethanolamine or H.

>  <SMILES>  (166) 
[C@@H]1([C@@H]([C@@H]([C@@H]([C@H]([C@@H]1O)O)O)O*)OP(OC[C@@H]([C@@H](O*)O)NC(*)=O)(=O)[O-])O[C@@H]2[C@H]([NH3+])[C@@H](O)[C@@H]([C@H](O2)CO)O[C@@H]3[C@H]([C@H]([C@@H]([C@H](O3)CO[C@@H]4[C@H]([C@H]([C@@H]([C@H](O4)CO*)O)O)O[C@@H]5[C@H]([C@H]([C@@H]([C@H](O5)COP([O-])(=O)OCCNC([C@@H](N*)CO)=O)O)O)O*)O*)O*)O*

>  <Formulae>  (166) 
C39H62N4O36P2R8

>  <Charge>  (166) 
-1

>  <Mass>  (166) 
1224.864

>  <Monoisotopic Mass>  (166) 
1224.26190

>  <Synonyms>  (166) 
a GIPC-anchor amidated L-serine residue
glycosylinositolphosphoceramide-anchor amidated L-serine residue(1-)

>  <PubMed citation Links>  (166) 
8269952
2721485

>  <PubChem Database Links>  (166) 
SID: 85343445

>  <Last Modified>  (166) 
04 Feb 2020

$$$$

     RDKit          2D

 25 25  0  0  1  0  0  0  0  0999 V2000
    9.8534   -0.8880    0.0000 N   0  0  0  0  0  0  0  0  0  0  0  0
   10.7194   -1.3880    0.0000 C   0  0  0  0  0  0  0  0  0  0  0  0
   10.7194   -2.3880    0.0000 C   0  0  0  0  0  0  0  0  0  0  0  0
    9.8534   -2.8880    0.0000 C   0  0  0  0  0  0  0  0  0  0  0  0
    8.9875   -2.3880    0.0000 C   0  0  0  0  0  0  0  0  0  0  0  0
    8.9875   -1.3880    0.0000 C   0  0  0  0  0  0  0  0  0  0  0  0
    8.1214   -0.8880    0.0000 C   0  0  0  0  0  0  0  0  0  0  0  0
    8.1214   -2.8880    0.0000 O   0  0  0  0  0  0  0  0  0  0  0  0
    9.8534   -3.8881    0.0000 C   0  0  0  0  0  0  0  0  0  0  0  0
    8.9875   -4.3881    0.0000 N   0  0  0  0  0  0  0  0  0  0  0  0
    8.9875   -5.3880    0.0000 C   0  0  0  0  0  0  0  0  0  0  0  0
    8.1214   -5.8880    0.0000 C   0  0  0  0  0  0  0  0  0  0  0  0
    8.1214   -6.8880    0.0000 C   0  0  0  0  0  0  0  0  0  0  0  0
    7.2552   -7.3881    0.0000 C   0  0  0  0  0  0  0  0  0  0  0  0
    7.2552   -8.3881    0.0000 C   0  0  0  0  0  0  0  0  0  0  0  0
    6.3893   -8.8881    0.0000 N   0  0  0  0  0  0  0  0  0  0  0  0
    8.1214   -8.8881    0.0000 C   0  0  0  0  0  0  0  0  0  0  0  0
    8.1214   -9.8879    0.0000 O   0  0  0  0  0  0  0  0  0  0  0  0
    8.9875   -8.3881    0.0000 O   0  0  0  0  0  0  0  0  0  0  0  0
   11.5854   -2.8880    0.0000 C   0  0  0  0  0  0  0  0  0  0  0  0
   12.4514   -2.3880    0.0000 O   0  0  0  0  0  0  0  0  0  0  0  0
   13.3174   -2.8880    0.0000 P   0  0  0  0  0  0  0  0  0  0  0  0
   14.1835   -2.3881    0.0000 O   0  0  0  0  0  0  0  0  0  0  0  0
   13.3174   -3.8881    0.0000 O   0  0  0  0  0  0  0  0  0  0  0  0
   13.3174   -1.8880    0.0000 O   0  0  0  0  0  0  0  0  0  0  0  0
  1  2  2  0
  2  3  1  0
  3  4  2  0
  4  5  1  0
  5  6  2  0
  6  1  1  0
  6  7  1  0
  5  8  1  0
  4  9  1  0
  9 10  2  0
 10 11  1  0
 11 12  1  0
 12 13  1  0
 13 14  1  0
 15 14  1  0
 15 16  1  1
 15 17  1  0
 17 18  2  0
 17 19  1  0
  3 20  1  0
 20 21  1  0
 21 22  1  0
 22 23  1  0
 22 24  2  0
 22 25  1  0
V   19 *
M  END
>  <ChEBI ID>  (167) 
CHEBI:143915

>  <ChEBI Name>  (167) 
N(6)-(pyridoxal phosphate)-L-lysine(2-) residue

>  <Star>  (167) 
2

>  <Definition>  (167) 
Major species at pH 7.3.

>  <SMILES>  (167) 
N=1C=C(C(=C(C1C)O)/C=N/CCCC[C@H](N*)C(=O)*)COP([O-])(=O)[O-]

>  <Formulae>  (167) 
C14H18N3O6P

>  <Charge>  (167) 
-2

>  <Mass>  (167) 
355.284

>  <Monoisotopic Mass>  (167) 
355.09332

>  <Synonyms>  (167) 
N(6)-(pyridoxal phosphate)-L-lysine residue

>  <PubChem Database Links>  (167) 
SID: 85343552

>  <Rhea Database Links>  (167) 
RHEA:65756

>  <Last Modified>  (167) 
12 Mar 2020

$$$$

     RDKit          2D

 16 15  0  0  1  0  0  0  0  0999 V2000
    0.8810    0.4872    0.0000 C   0  0  0  0  0  0  0  0  0  0  0  0
    0.0147   -0.0130    0.0000 C   0  0  0  0  0  0  0  0  0  0  0  0
    0.0147   -1.0133    0.0000 N   0  0  0  0  0  0  0  0  0  0  0  0
   -0.8516    0.4873    0.0000 C   0  0  0  0  0  0  0  0  0  0  0  0
   -1.7179   -0.0129    0.0000 S   0  0  0  0  0  0  0  0  0  0  0  0
    0.8810    1.4877    0.0000 O   0  0  0  0  0  0  0  0  0  0  0  0
    1.7474   -0.0130    0.0000 O   0  0  0  0  0  0  0  0  0  0  0  0
   -2.5843    0.4873    0.0000 C   0  0  0  0  0  0  0  0  0  0  0  0
   -1.7195    1.9864    0.0000 C   0  0  0  0  0  0  0  0  0  0  0  0
   -2.5843    1.4964    0.0000 C   0  0  0  0  0  0  0  0  0  0  0  0
   -3.4635    1.9864    0.0000 C   0  0  0  0  0  0  0  0  0  0  0  0
   -4.3282    1.4964    0.0000 C   0  0  0  0  0  0  0  0  0  0  0  0
   -1.7195    2.9954    0.0000 O   0  0  0  0  0  0  0  0  0  0  0  0
   -0.8690    1.4964    0.0000 O   0  0  0  0  0  0  0  0  0  0  0  0
   -4.3282    0.4873    0.0000 O   0  0  0  0  0  0  0  0  0  0  0  0
   -5.1931    1.9864    0.0000 O   0  0  0  0  0  0  0  0  0  0  0  0
  1  6  2  0
  7  1  1  0
  2  1  1  0
  2  3  1  1
  2  4  1  0
  4  5  1  0
  5  8  1  0
 10  9  1  0
 14  9  1  0
 13  9  2  0
 11 10  1  0
 12 11  1  0
 16 12  1  0
 15 12  2  0
  8 10  1  0
V    7 *
M  END
>  <ChEBI ID>  (168) 
CHEBI:144095

>  <ChEBI Name>  (168) 
S-methylbutanedioate-L-cysteinyl(2-) residue

>  <Star>  (168) 
2

>  <Definition>  (168) 
Major species at pH 7.3.

>  <SMILES>  (168) 
C(=O)(*)[C@@H](N*)CSCC(C([O-])=O)CC([O-])=O

>  <Formulae>  (168) 
C8H9NO5S

>  <Charge>  (168) 
-2

>  <Mass>  (168) 
231.227

>  <Monoisotopic Mass>  (168) 
231.02014

>  <Synonyms>  (168) 
S-(2,3-dicarboxypropyl)-L-cysteine residue

>  <PubMed citation Links>  (168) 
29590092

>  <PubChem Database Links>  (168) 
SID: 85343727

>  <Rhea Database Links>  (168) 
RHEA:61028

>  <Last Modified>  (168) 
29 Jul 2019

$$$$

     RDKit          2D

 13 12  0  0  1  0  0  0  0  0999 V2000
   -3.8971    0.2499    0.0000 O   0  0  0  0  0  0  0  0  0  0  0  0
   -3.0310   -0.2501    0.0000 C   0  0  0  0  0  0  0  0  0  0  0  0
    3.0310    0.2501    0.0000 C   0  0  0  0  0  0  0  0  0  0  0  0
    2.1651   -0.2499    0.0000 C   0  0  0  0  0  0  0  0  0  0  0  0
    1.2990    0.2501    0.0000 C   0  0  0  0  0  0  0  0  0  0  0  0
    0.4330   -0.2499    0.0000 C   0  0  0  0  0  0  0  0  0  0  0  0
   -0.4330    0.2501    0.0000 C   0  0  0  0  0  0  0  0  0  0  0  0
   -1.2990   -0.2501    0.0000 C   0  0  0  0  0  0  0  0  0  0  0  0
   -2.1651    0.2499    0.0000 N   0  0  0  0  0  0  0  0  0  0  0  0
    3.0310    1.2499    0.0000 O   0  0  0  0  0  0  0  0  0  0  0  0
   -3.0310   -1.2501    0.0000 O   0  0  0  0  0  0  0  0  0  0  0  0
    3.8971   -0.2499    0.0000 O   0  0  0  0  0  0  0  0  0  0  0  0
    2.1651   -1.2501    0.0000 N   0  0  0  0  0  0  0  0  0  0  0  0
  1  2  1  0
 11  2  2  0
 10  3  2  0
  4  3  1  0
  4 13  1  1
  4  5  1  0
  6  5  1  0
  6  7  1  0
  7  8  1  0
 12  3  1  0
  2  9  1  0
  8  9  1  0
V   12 *
M  END
>  <ChEBI ID>  (169) 
CHEBI:144366

>  <ChEBI Name>  (169) 
N(6)-carboxy-L-lysine(1-) residue

>  <Star>  (169) 
3

>  <Definition>  (169) 
An alpha-amino-acid residue anion obtained by deprotonation of the free carboxy group of N(6)-carboxy-L-lysine residue; major species at pH 7.3.

>  <SMILES>  (169) 
[O-]C(=O)NCCCC[C@@H](C(=O)*)N*

>  <Formulae>  (169) 
C7H11N2O3

>  <Charge>  (169) 
-1

>  <Mass>  (169) 
171.174

>  <Monoisotopic Mass>  (169) 
171.07697

>  <Synonyms>  (169) 
N(6)-carboxy-L-lysine residue

>  <PubChem Database Links>  (169) 
SID: 85343994

>  <Last Modified>  (169) 
22 May 2020

$$$$

     RDKit          2D

 13 12  0  0  1  0  0  0  0  0999 V2000
   -3.8971    0.2499    0.0000 N   0  0  0  0  0  0  0  0  0  0  0  0
   -3.0310   -0.2501    0.0000 C   0  0  0  0  0  0  0  0  0  0  0  0
    3.0310    0.2501    0.0000 C   0  0  0  0  0  0  0  0  0  0  0  0
    2.1651   -0.2499    0.0000 C   0  0  0  0  0  0  0  0  0  0  0  0
    1.2990    0.2501    0.0000 C   0  0  0  0  0  0  0  0  0  0  0  0
    0.4330   -0.2499    0.0000 C   0  0  0  0  0  0  0  0  0  0  0  0
   -0.4330    0.2501    0.0000 C   0  0  0  0  0  0  0  0  0  0  0  0
   -1.2990   -0.2501    0.0000 C   0  0  0  0  0  0  0  0  0  0  0  0
   -2.1651    0.2499    0.0000 N   0  0  0  0  0  0  0  0  0  0  0  0
    3.0310    1.2499    0.0000 O   0  0  0  0  0  0  0  0  0  0  0  0
   -3.0310   -1.2501    0.0000 O   0  0  0  0  0  0  0  0  0  0  0  0
    3.8971   -0.2499    0.0000 O   0  0  0  0  0  0  0  0  0  0  0  0
    2.1651   -1.2501    0.0000 N   0  0  0  0  0  0  0  0  0  0  0  0
  1  2  1  0
 11  2  2  0
 10  3  2  0
  4  3  1  0
  4 13  1  1
  4  5  1  0
  6  5  1  0
  6  7  1  0
  7  8  1  0
 12  3  1  0
  2  9  1  0
  8  9  1  0
V   12 *
M  END
>  <ChEBI ID>  (170) 
CHEBI:144369

>  <ChEBI Name>  (170) 
L-homocitrulline residue

>  <Star>  (170) 
3

>  <Definition>  (170) 
An L-alpha-amino acid residue derived from L-homocitrulline.

>  <SMILES>  (170) 
NC(=O)NCCCC[C@@H](C(=O)*)N*

>  <Formulae>  (170) 
C7H13N3O2

>  <Charge>  (170) 
0

>  <Mass>  (170) 
171.197

>  <Monoisotopic Mass>  (170) 
171.10078

>  <Synonyms>  (170) 
N(6)-carbamoyl-L-lysine residue

>  <PubChem Database Links>  (170) 
SID: 85343997

>  <Last Modified>  (170) 
16 Sep 2019

$$$$

     RDKit          2D

 30 33  0  0  1  0  0  0  0  0999 V2000
    7.3491   -5.6121    0.0000 N   0  0  0  0  0  0  0  0  0  0  0  0
    9.0848   -5.6121    0.0000 C   0  0  0  0  0  0  0  0  0  0  0  0
    9.0848   -6.6142    0.0000 C   0  0  0  0  0  0  0  0  0  0  0  0
    8.2169   -5.1111    0.0000 C   0  0  0  0  0  0  0  0  0  0  0  0
    8.2169   -7.1153    0.0000 N   0  0  0  0  0  0  0  0  0  0  0  0
   10.3474   -7.8769    0.0000 C   0  0  0  0  0  0  0  0  0  0  0  0
    9.7585   -8.6877    0.0000 O   0  0  0  0  0  0  0  0  0  0  0  0
   10.3474   -9.4984    0.0000 C   0  0  0  0  0  0  0  0  0  0  0  0
   11.3006   -9.1887    0.0000 C   0  0  0  0  0  0  0  0  0  0  0  0
   11.3006   -8.1866    0.0000 C   0  0  0  0  0  0  0  0  0  0  0  0
   12.1113   -7.7788    0.0000 O   0  0  0  0  0  0  0  0  0  0  0  0
   12.0451   -9.8592    0.0000 O   0  0  0  0  0  0  0  0  0  0  0  0
   10.1391  -10.4786    0.0000 C   0  0  0  0  0  0  0  0  0  0  0  0
   10.8838  -11.1491    0.0000 O   0  0  0  0  0  0  0  0  0  0  0  0
   12.8172  -11.0478    0.0000 O   0  0  0  0  0  0  0  0  0  0  0  0
   11.8369  -10.8395    0.0000 P   0  0  0  0  0  0  0  0  0  0  0  0
   12.1466  -11.7924    0.0000 O   0  0  0  0  0  0  0  0  0  0  0  0
   10.0379   -6.9239    0.0000 N   0  0  0  0  0  0  0  0  0  0  0  0
   10.6269   -6.1132    0.0000 C   0  0  0  0  0  0  0  0  0  0  0  0
   10.0379   -5.3026    0.0000 N   0  0  0  0  0  0  0  0  0  0  0  0
    7.3491   -6.6142    0.0000 C   0  0  0  0  0  0  0  0  0  0  0  0
    6.4812   -7.1153    0.0000 N   0  0  0  0  0  0  0  0  0  0  0  0
    8.2169   -4.1090    0.0000 O   0  0  0  0  0  0  0  0  0  0  0  0
   11.6289   -6.1132    0.0000 S   0  0  0  0  0  0  0  0  0  0  0  0
   14.2325   -5.6122    0.0000 C   0  0  0  0  0  0  0  0  0  0  0  0
   13.3646   -6.1133    0.0000 C   0  0  0  0  0  0  0  0  0  0  0  0
   13.3646   -7.1154    0.0000 N   0  0  0  0  0  0  0  0  0  0  0  0
   12.4968   -5.6121    0.0000 C   0  0  0  0  0  0  0  0  0  0  0  0
   14.2325   -4.6100    0.0000 O   0  0  0  0  0  0  0  0  0  0  0  0
   15.1005   -6.1133    0.0000 O   0  0  0  0  0  0  0  0  0  0  0  0
  1 21  1  0
  2 20  1  0
  2  3  2  0
  3 18  1  0
  4  1  1  0
  2  4  1  0
 23  4  2  0
  5 21  2  0
  3  5  1  0
  6 18  1  1
  6  7  1  0
 10  6  1  0
  8  7  1  0
  8 13  1  1
  9  8  1  0
  9 12  1  6
  9 10  1  0
 10 11  1  6
 12 16  1  0
 14 13  1  0
 16 14  1  0
 16 15  2  0
 16 17  1  0
 19 18  1  0
 20 19  2  0
 21 22  1  0
 19 24  1  0
 25 29  2  0
 30 25  1  0
 26 25  1  0
 26 27  1  1
 26 28  1  0
 28 24  1  0
V   30 *
M  END
>  <ChEBI ID>  (171) 
CHEBI:144463

>  <ChEBI Name>  (171) 
S-(guanosine 3',5'-cyclic phosphate)-L-cysteine(1-) residue

>  <Star>  (171) 
2

>  <Definition>  (171) 
Major species at pH 7.3

>  <SMILES>  (171) 
N1C(=NC2=C(N=C(N2[C@@H]3O[C@@H]4COP(O[C@H]4[C@H]3O)(=O)[O-])SC[C@@H](C(=O)*)N*)C1=O)N

>  <Formulae>  (171) 
C13H14N6O8PS

>  <Charge>  (171) 
-1

>  <Mass>  (171) 
445.326

>  <Monoisotopic Mass>  (171) 
445.03314

>  <Synonyms>  (171) 
S-(guanosine 3',5'-cyclic phosphate)-L-cysteine residue

>  <PubMed citation Links>  (171) 
28213625
17906641

>  <PubChem Database Links>  (171) 
SID: 85344089

>  <Rhea Database Links>  (171) 
RHEA:61208

$$$$

     RDKit          2D

 16 15  0  0  1  0  0  0  0  0999 V2000
   17.2729  -21.5992    0.0000 C   0  0  0  0  0  0  0  0  0  0  0  0
   18.1412  -22.1039    0.0000 O   0  0  0  0  0  0  0  0  0  0  0  0
   16.4048  -22.1039    0.0000 C   0  0  0  0  0  0  0  0  0  0  0  0
   17.2729  -20.6099    0.0000 O   0  0  0  0  0  0  0  0  0  0  0  0
   16.4250  -23.0931    0.0000 N   0  0  0  0  0  0  0  0  0  0  0  0
   12.0843  -21.5992    0.0000 N   0  0  0  0  0  0  0  0  0  0  0  0
   12.9525  -22.0838    0.0000 C   0  0  0  0  0  0  0  0  0  0  0  0
   15.5568  -21.5992    0.0000 C   0  0  0  0  0  0  0  0  0  0  0  0
   13.8205  -21.5992    0.0000 C   0  0  0  0  0  0  0  0  0  0  0  0
   14.6887  -22.1039    0.0000 C   0  0  0  0  0  0  0  0  0  0  0  0
   11.2220  -22.1140    0.0000 C   0  0  0  0  0  0  0  0  0  0  0  0
   10.3452  -21.6246    0.0000 C   0  0  0  0  0  0  0  0  0  0  0  0
   11.2367  -23.1179    0.0000 O   0  0  0  0  0  0  0  0  0  0  0  0
    9.4829  -22.1392    0.0000 O   0  0  0  0  0  0  0  0  0  0  0  0
    9.8306  -20.7623    0.0000 C   0  0  0  0  0  0  0  0  0  0  0  0
   10.8347  -20.7477    0.0000 C   0  0  0  0  0  0  0  0  0  0  0  0
  2  1  1  0
  3  1  1  0
  4  1  2  0
  3  5  1  1
  3  8  1  0
  7  6  1  0
  9  7  1  0
 10  8  1  0
 10  9  1  0
  6 11  1  0
 11 12  1  0
 11 13  2  0
 12 14  1  0
 12 15  1  0
 12 16  1  0
V    2 *
M  END
>  <ChEBI ID>  (172) 
CHEBI:144968

>  <ChEBI Name>  (172) 
N(6)-(2-hydroxyisobutanoyl)-L-lysine residue

>  <Star>  (172) 
3

>  <Definition>  (172) 
An N(6)-acyl-L-lysine residue derived from N(6)-(2-hydroxyisobutanoyl)-L-lysine.

>  <SMILES>  (172) 
C(*)([C@@H](N*)CCCCNC(C(O)(C)C)=O)=O

>  <Formulae>  (172) 
C10H18N2O3

>  <Charge>  (172) 
0

>  <Mass>  (172) 
214.262

>  <Monoisotopic Mass>  (172) 
214.13174

>  <IUPAC Names>  (172) 
N(6)-(2-hydroxy-2-methylpropanoyl)-L-lysine residue

>  <Synonyms>  (172) 
Khib residue
N(6)-(2-hydroxyisobutanoyl)-L-lysine residue
N(6)-(2-hydroxyisobutyryl)-L-lysine residue

>  <PubMed citation Links>  (172) 
28768809
29775581
24681537
27924077

>  <PubChem Database Links>  (172) 
SID: 85344588

>  <Rhea Database Links>  (172) 
RHEA:24180
RHEA:24364
RHEA:69176

>  <Last Modified>  (172) 
15 Nov 2019

$$$$

     RDKit          2D

 15 14  0  0  0  0  0  0  0  0999 V2000
   -9.4497    2.8282    0.0000 C   0  0  0  0  0  0  0  0  0  0  0  0
   -8.5838    2.3282    0.0000 C   0  0  0  0  0  0  0  0  0  0  0  0
   -7.7177    2.8282    0.0000 N   0  0  0  0  0  0  0  0  0  0  0  0
   -6.8517    2.3282    0.0000 C   0  0  0  0  0  0  0  0  0  0  0  0
   -5.9857    2.8282    0.0000 C   0  0  0  0  0  0  0  0  0  0  0  0
   -5.1198    2.3282    0.0000 C   0  0  0  0  0  0  0  0  0  0  0  0
   -4.2537    2.8282    0.0000 C   0  0  0  0  0  0  0  0  0  0  0  0
   -3.3876    2.3282    0.0000 C   0  0  0  0  0  0  0  0  0  0  0  0
   -2.5217    2.8282    0.0000 C   0  0  0  0  0  0  0  0  0  0  0  0
   -1.6556    2.3282    0.0000 O   0  0  0  0  0  0  0  0  0  0  0  0
   -2.5217    3.8282    0.0000 O   0  0  0  0  0  0  0  0  0  0  0  0
   -3.3876    1.3282    0.0000 N   0  0  0  0  0  0  0  0  0  0  0  0
   -8.5838    1.3282    0.0000 O   0  0  0  0  0  0  0  0  0  0  0  0
  -10.3158    2.3282    0.0000 C   0  0  0  0  0  0  0  0  0  0  0  0
   -9.4497    3.8282    0.0000 O   0  0  0  0  0  0  0  0  0  0  0  0
  1  2  1  0
  2  3  1  0
  3  4  1  0
  4  5  1  0
  5  6  1  0
  6  7  1  0
  8  7  1  0
  8  9  1  0
  9 10  1  0
  9 11  2  0
  8 12  1  1
  2 13  2  0
  1 14  1  0
  1 15  1  0
V   10 *
M  END
>  <ChEBI ID>  (173) 
CHEBI:145324

>  <ChEBI Name>  (173) 
N(6)-lactoyl-L-lysine residue

>  <Star>  (173) 
3

>  <Definition>  (173) 
An N(6)-acyl-L-lysine residue that has lactoyl as the N(6)-acyl group.

>  <SMILES>  (173) 
C(C(NCCCC[C@@H](C(*)=O)N*)=O)(C)O

>  <Formulae>  (173) 
C9H16N2O3

>  <Charge>  (173) 
0

>  <Mass>  (173) 
200.235

>  <Monoisotopic Mass>  (173) 
200.11609

>  <Synonyms>  (173) 
N(6)-(2-hydroxypropanoyl)-L-lysine residue
N(6)-(lactoyl)-L-lysine residue

>  <PubMed citation Links>  (173) 
31645732

>  <PubChem Database Links>  (173) 
SID: 85344942

>  <Rhea Database Links>  (173) 
RHEA:61996

>  <Last Modified>  (173) 
15 Nov 2019

$$$$

     RDKit          2D

  9  8  0  0  0  0  0  0  0  0999 V2000
   -0.4330    0.2501    0.0000 C   0  0  0  0  0  0  0  0  0  0  0  0
   -2.1651    0.2501    0.0000 O   0  0  0  0  0  0  0  0  0  0  0  0
   -1.2990   -0.2499    0.0000 C   0  0  0  0  0  0  0  0  0  0  0  0
   -1.2990   -1.2499    0.0000 O   0  0  0  0  0  0  0  0  0  0  0  0
    1.2990    0.2501    0.0000 C   0  0  0  0  0  0  0  0  0  0  0  0
    1.2990    1.2500    0.0000 O   0  0  0  0  0  0  0  0  0  0  0  0
    0.4330   -0.2501    0.0000 C   0  0  0  0  0  0  0  0  0  0  0  0
    0.4330   -1.2500    0.0000 N   0  0  0  0  0  0  0  0  0  0  0  0
    2.1649   -0.2501    0.0000 O   0  0  0  0  0  0  0  0  0  0  0  0
  5  9  1  0
  7  5  1  0
  1  7  2  0
  3  1  1  0
  2  3  1  0
  3  4  2  0
  5  6  2  0
  7  8  1  0
V    9 *
M  END
>  <ChEBI ID>  (174) 
CHEBI:145325

>  <ChEBI Name>  (174) 
(Z)-2,3-didehydroaspartate residue

>  <Star>  (174) 
3

>  <Definition>  (174) 
An anionic amino acid residue that is the (Z)-isomer of the alpha,beta-didehydro derivative of aspartate residue. Major microspecies at pH 7.3.

>  <SMILES>  (174) 
C(=C(/C(*)=O)\N*)\C([O-])=O

>  <Formulae>  (174) 
C4H2NO3

>  <Charge>  (174) 
-1

>  <Mass>  (174) 
112.064

>  <Monoisotopic Mass>  (174) 
112.00347

>  <Synonyms>  (174) 
(Z)-2,3-didehydroaspartate residue

>  <PubChem Database Links>  (174) 
SID: 85344943

>  <Last Modified>  (174) 
08 Nov 2019

$$$$

     RDKit          2D

 15 14  0  0  1  0  0  0  0  0999 V2000
    2.4537    1.1667    0.0000 O   0  0  0  0  0  0  0  0  0  0  0  0
    2.4537    0.1667    0.0000 C   0  0  0  0  0  0  0  0  0  0  0  0
    3.3197   -0.3333    0.0000 O   0  0  0  0  0  0  0  0  0  0  0  0
    1.5877   -0.3333    0.0000 C   0  0  0  0  0  0  0  0  0  0  0  0
    0.7217    0.1667    0.0000 C   0  0  0  0  0  0  0  0  0  0  0  0
   -0.1444   -0.3333    0.0000 C   0  0  0  0  0  0  0  0  0  0  0  0
   -1.0103    0.1667    0.0000 C   0  0  0  0  0  0  0  0  0  0  0  0
   -1.8764   -0.3333    0.0000 N   0  0  0  0  0  0  0  0  0  0  0  0
   -2.7424    0.1667    0.0000 C   0  0  0  0  0  0  0  0  0  0  0  0
   -2.7424    1.1667    0.0000 N   0  0  0  0  0  0  0  0  0  0  0  0
   -3.6085   -0.3333    0.0000 N   0  0  0  0  0  0  0  0  0  0  0  0
    1.5877   -1.3333    0.0000 N   0  0  0  0  0  0  0  0  0  0  0  0
    0.7217   -1.8333    0.0000 C   0  0  0  0  0  0  0  0  0  0  0  0
    0.7217   -2.8333    0.0000 C   0  0  0  0  0  0  0  0  0  0  0  0
   -0.1443   -1.3333    0.0000 O   0  0  0  0  0  0  0  0  0  0  0  0
  2  1  2  0
  3  2  1  0
  4  2  1  0
  4 12  1  0
  4  5  1  1
  6  5  1  0
  8  7  1  0
  6  7  1  0
  9  8  1  0
 10  9  2  0
 11  9  1  0
 12 13  1  0
 13 14  1  0
 13 15  2  0
V    3 *
M  END
>  <ChEBI ID>  (175) 
CHEBI:145666

>  <ChEBI Name>  (175) 
N(2)-acetyl-L-argininium residue

>  <Star>  (175) 
2

>  <SMILES>  (175) 
O=C(*)[C@@H](NC(C)=O)CCCNC(=[NH2+])N

>  <Formulae>  (175) 
C8H16N4O2

>  <Charge>  (175) 
+1

>  <Mass>  (175) 
200.239

>  <Monoisotopic Mass>  (175) 
200.12733

>  <Synonyms>  (175) 
N-terminal N(alpha)-acetyl-L-arginine residue

>  <PubChem Database Links>  (175) 
SID: 85345283

>  <Last Modified>  (175) 
12 Dec 2019

$$$$

     RDKit          2D

 10 10  0  0  1  0  0  0  0  0999 V2000
   11.3270   -6.7966    0.0000 C   0  0  0  0  0  0  0  0  0  0  0  0
   12.0701   -6.1274    0.0000 O   0  0  0  0  0  0  0  0  0  0  0  0
   11.5349   -7.7749    0.0000 O   0  0  0  0  0  0  0  0  0  0  0  0
   10.3760   -6.4875    0.0000 C   0  0  0  0  0  0  0  0  0  0  0  0
   10.0669   -5.5365    0.0000 C   0  0  0  0  0  0  0  0  0  0  0  0
    8.7580   -6.4878    0.0000 C   0  0  0  0  0  0  0  0  0  0  0  0
    9.0671   -5.5365    0.0000 C   0  0  0  0  0  0  0  0  0  0  0  0
    9.0225   -7.9141    0.0000 C   0  0  0  0  0  0  0  0  0  0  0  0
    9.5670   -7.0755    0.0000 N   0  0  0  0  0  0  0  0  0  0  0  0
   10.0211   -7.9664    0.0000 C   0  0  0  0  0  0  0  0  0  0  0  0
  1  2  2  0
  1  3  1  0
  4  9  1  0
  4  5  1  0
  9  6  1  0
  5  7  1  0
  6  7  1  0
  4  1  1  1
  9  8  1  0
  9 10  1  0
V    3 *
M  END
>  <ChEBI ID>  (176) 
CHEBI:145671

>  <ChEBI Name>  (176) 
N,N-dimethyl-L-prolinium residue

>  <Star>  (176) 
2

>  <Definition>  (176) 
The N,N-dimethylated derivative of L-proliniumyl group 

>  <SMILES>  (176) 
C(=O)(*)[C@H]1[N+](CCC1)(C)C

>  <Formulae>  (176) 
C7H13NO

>  <Charge>  (176) 
+1

>  <Mass>  (176) 
127.184

>  <Monoisotopic Mass>  (176) 
127.09971

>  <Synonyms>  (176) 
N-terminal N,N-dimethyl-L-proline residue

>  <PubChem Database Links>  (176) 
SID: 85345288

$$$$

     RDKit          2D

 20 20  0  0  1  0  0  0  0  0999 V2000
   11.2811  -20.4738    0.0000 O   0  0  0  0  0  0  0  0  0  0  0  0
   10.4152  -20.9737    0.0000 C   0  0  0  0  0  0  0  0  0  0  0  0
    9.5492  -20.4738    0.0000 C   0  0  0  0  0  0  0  0  0  0  0  0
    9.5492  -19.4739    0.0000 O   0  0  0  0  0  0  0  0  0  0  0  0
    8.6831  -18.9739    0.0000 P   0  0  0  0  0  0  0  0  0  0  0  0
    7.8172  -18.4738    0.0000 O   0  0  0  0  0  0  0  0  0  0  0  0
    9.1831  -18.1077    0.0000 O   0  0  0  0  0  0  0  0  0  0  0  0
    8.1831  -19.8399    0.0000 *   0  0  0  0  0  0  0  0  0  0  0  0
   10.4152  -21.9737    0.0000 C   0  0  0  0  0  0  0  0  0  0  0  0
   11.2811  -22.4737    0.0000 C   0  0  0  0  0  0  0  0  0  0  0  0
    9.5492  -22.4737    0.0000 O   0  0  0  0  0  0  0  0  0  0  0  0
    9.5492  -23.4737    0.0000 *   0  0  0  0  0  0  0  0  0  0  0  0
   11.2811  -23.4737    0.0000 C   0  0  0  0  0  0  0  0  0  0  0  0
   10.4722  -24.0615    0.0000 S   0  0  0  0  0  0  0  0  0  0  0  0
   12.0903  -24.0615    0.0000 N   0  0  0  0  0  0  0  0  0  0  0  0
   11.7812  -25.0126    0.0000 C   0  0  0  0  0  0  0  0  0  0  0  0
   10.7812  -25.0126    0.0000 C   0  0  0  0  0  0  0  0  0  0  0  0
   12.3690  -25.8216    0.0000 C   0  0  0  0  0  0  0  0  0  0  0  0
   11.9623  -26.7353    0.0000 O   0  0  0  0  0  0  0  0  0  0  0  0
   13.3636  -25.7171    0.0000 O   0  0  0  0  0  0  0  0  0  0  0  0
  2  1  1  1
  2  3  1  0
  3  4  1  0
  4  5  1  0
  5  6  2  0
  5  7  1  0
  5  8  1  0
  2  9  1  0
  9 10  1  6
  9 11  1  0
 11 12  1  0
 10 13  1  0
 15 16  1  0
 16 17  1  0
 14 17  1  0
 14 13  1  0
 13 15  1  0
 16 18  1  6
 18 19  1  0
 18 20  2  0
V    8 *
V   12 *
V   19 *
M  END
>  <ChEBI ID>  (177) 
CHEBI:145793

>  <ChEBI Name>  (177) 
ring-opened abasic DNA residue cross-linked to a protein cysteinyl group

>  <Star>  (177) 
3

>  <Definition>  (177) 
An abasic DNA-protein cross-linked residue resulting from the formal condensation of L-cysteine residue of a protein with a ring-opened abasic site [also known as AP (apurinic or apyrimidinic) site] of DNA forming a thiazolidine covalent linkage.

>  <SMILES>  (177) 
O[C@H](COP(=O)([O-])*)[C@H](CC1SC[C@H](N1)C(*)=O)O*

>  <Formulae>  (177) 
C8H12NO6PS

>  <Charge>  (177) 
-1

>  <Mass>  (177) 
281.224

>  <Monoisotopic Mass>  (177) 
281.01229

>  <Synonyms>  (177) 
(2R,3S)-4-[(4R)-4-acyl-1,3-thiazolidin-2-yl]-2-hydroxy-3-O-butyl phosphate residue
a ring-opened abasic DNA residue cross-linked to an L cysteinyl residue

>  <PubMed citation Links>  (177) 
31235913
31504793
31235915

>  <PubChem Database Links>  (177) 
SID: 85345409

>  <Last Modified>  (177) 
22 Jan 2020

$$$$

     RDKit          2D

 13 12  0  0  0  0  0  0  0  0999 V2000
   10.6319  -21.2454    0.0000 C   0  0  0  0  0  0  0  0  0  0  0  0
   10.6319  -20.2453    0.0000 O   0  0  0  0  0  0  0  0  0  0  0  0
    9.7657  -21.7454    0.0000 C   0  0  0  0  0  0  0  0  0  0  0  0
    9.7657  -22.7454    0.0000 N   0  0  0  0  0  0  0  0  0  0  0  0
    8.8998  -21.2454    0.0000 C   0  0  0  0  0  0  0  0  0  0  0  0
    8.0336  -21.7454    0.0000 C   0  0  0  0  0  0  0  0  0  0  0  0
    7.1677  -21.2454    0.0000 O   0  0  0  0  0  0  0  0  0  0  0  0
    8.0336  -22.7454    0.0000 O   0  0  0  0  0  0  0  0  0  0  0  0
   11.4980  -21.7452    0.0000 O   0  0  0  0  0  0  0  0  0  0  0  0
    7.1676  -20.2453    0.0000 P   0  0  0  0  0  0  0  0  0  0  0  0
    6.3016  -19.7453    0.0000 O   0  0  0  0  0  0  0  0  0  0  0  0
    8.0336  -19.7453    0.0000 O   0  0  0  0  0  0  0  0  0  0  0  0
    6.3016  -20.7453    0.0000 O   0  0  0  0  0  0  0  0  0  0  0  0
  1  9  1  0
  2  1  2  0
  3  1  1  0
  3  4  1  1
  3  5  1  0
  6  5  1  0
  7  6  1  0
  8  6  2  0
  7 10  1  0
 10 11  1  0
 10 12  2  0
 10 13  1  0
V    9 *
M  END
>  <ChEBI ID>  (178) 
CHEBI:145811

>  <ChEBI Name>  (178) 
4-phospho-L-aspartate(2-) residue

>  <Star>  (178) 
2

>  <Definition>  (178) 
Major species at pH 7.3.

>  <SMILES>  (178) 
C(*)(=O)[C@@H](N*)CC(OP([O-])(=O)[O-])=O

>  <Formulae>  (178) 
C4H4NO6P

>  <Charge>  (178) 
-2

>  <Mass>  (178) 
193.052

>  <Monoisotopic Mass>  (178) 
192.97762

>  <Synonyms>  (178) 
4-phospho-L-aspartate residue
L-aspartic 4-phosphoric anhydride residue

>  <PubChem Database Links>  (178) 
SID: 85345427

$$$$

     RDKit          2D

  9  8  0  0  1  0  0  0  0  0999 V2000
    1.1159    0.5840    0.0000 C   0  0  0  0  0  0  0  0  0  0  0  0
    1.9819    0.0840    0.0000 N   0  0  0  0  0  0  0  0  0  0  0  0
    0.2498    0.0840    0.0000 C   0  0  0  0  0  0  0  0  0  0  0  0
   -0.6161    0.5840    0.0000 C   0  0  0  0  0  0  0  0  0  0  0  0
   -1.4822    0.0840    0.0000 C   0  0  0  0  0  0  0  0  0  0  0  0
   -1.4822   -0.9160    0.0000 C   0  0  0  0  0  0  0  0  0  0  0  0
   -2.3482    0.5840    0.0000 C   0  0  0  0  0  0  0  0  0  0  0  0
    0.2498   -0.9160    0.0000 N   0  0  0  0  0  0  0  0  0  0  0  0
    1.1159    1.5840    0.0000 O   0  0  0  0  0  0  0  0  0  0  0  0
  1  9  2  0
  2  1  1  0
  3  1  1  0
  3  8  1  1
  3  4  1  0
  5  4  1  0
  6  5  1  0
  7  5  1  0
M  END
>  <ChEBI ID>  (179) 
CHEBI:145812

>  <ChEBI Name>  (179) 
L-leucine amide residue

>  <Star>  (179) 
2

>  <SMILES>  (179) 
C(=O)(N)[C@@H](N*)CC(C)C

>  <Formulae>  (179) 
C6H13N2O

>  <Charge>  (179) 
0

>  <Mass>  (179) 
129.180

>  <Monoisotopic Mass>  (179) 
129.10279

>  <Synonyms>  (179) 
C-terminal L-leucine amide residue

>  <PubChem Database Links>  (179) 
SID: 85345428

$$$$

     RDKit          2D

  6  5  0  0  1  0  0  0  0  0999 V2000
   15.5000  -18.0370    0.0000 C   0  0  0  0  0  0  0  0  0  0  0  0
   15.5000  -17.0370    0.0000 O   0  0  0  0  0  0  0  0  0  0  0  0
   14.6340  -18.5370    0.0000 C   0  0  0  0  0  0  0  0  0  0  0  0
   14.6340  -19.5370    0.0000 N   0  0  0  0  0  0  0  0  0  0  0  0
   13.7680  -18.0370    0.0000 C   0  0  0  0  0  0  0  0  0  0  0  0
   16.3660  -18.5370    0.0000 N   0  0  0  0  0  0  0  0  0  0  0  0
  1  6  1  0
  2  1  2  0
  3  1  1  0
  3  4  1  0
  3  5  1  1
M  END
>  <ChEBI ID>  (180) 
CHEBI:145896

>  <ChEBI Name>  (180) 
L-alanine amide residue

>  <Star>  (180) 
2

>  <SMILES>  (180) 
C(N)(=O)[C@@H](N*)C

>  <Formulae>  (180) 
C3H5NO

>  <Charge>  (180) 
0

>  <Mass>  (180) 
71.078

>  <Monoisotopic Mass>  (180) 
71.03711

>  <Synonyms>  (180) 
C-terminal L-alanine amide residue

>  <PubChem Database Links>  (180) 
SID: 85345510

$$$$

     RDKit          2D

 12 11  0  0  1  0  0  0  0  0999 V2000
    2.4537    1.1667    0.0000 O   0  0  0  0  0  0  0  0  0  0  0  0
    2.4537    0.1667    0.0000 C   0  0  0  0  0  0  0  0  0  0  0  0
    3.3197   -0.3333    0.0000 N   0  0  0  0  0  0  0  0  0  0  0  0
    1.5877   -0.3333    0.0000 C   0  0  0  0  0  0  0  0  0  0  0  0
    0.7217    0.1667    0.0000 C   0  0  0  0  0  0  0  0  0  0  0  0
   -0.1444   -0.3333    0.0000 C   0  0  0  0  0  0  0  0  0  0  0  0
   -1.0103    0.1667    0.0000 C   0  0  0  0  0  0  0  0  0  0  0  0
   -1.8764   -0.3333    0.0000 N   0  0  0  0  0  0  0  0  0  0  0  0
   -2.7424    0.1667    0.0000 C   0  0  0  0  0  0  0  0  0  0  0  0
   -2.7424    1.1667    0.0000 N   0  0  0  0  0  0  0  0  0  0  0  0
   -3.6085   -0.3333    0.0000 N   0  0  0  0  0  0  0  0  0  0  0  0
    1.5877   -1.3333    0.0000 N   0  0  0  0  0  0  0  0  0  0  0  0
  2  1  2  0
  3  2  1  0
  4  2  1  0
  4 12  1  1
  4  5  1  0
  6  5  1  0
  8  7  1  0
  6  7  1  0
  9  8  1  0
 10  9  2  0
 11  9  1  0
M  END
>  <ChEBI ID>  (181) 
CHEBI:145897

>  <ChEBI Name>  (181) 
L-arginine amide(1+) residue

>  <Star>  (181) 
2

>  <SMILES>  (181) 
O=C(N)[C@@H](N*)CCCNC(=[NH2+])N

>  <Formulae>  (181) 
C6H15N5O

>  <Charge>  (181) 
+1

>  <Mass>  (181) 
173.216

>  <Monoisotopic Mass>  (181) 
173.12766

>  <Synonyms>  (181) 
C-terminal L-arginine amide residue

>  <PubChem Database Links>  (181) 
SID: 85345511

$$$$

     RDKit          2D

  9  8  0  0  1  0  0  0  0  0999 V2000
   -0.4330    0.2501    0.0000 C   0  0  0  0  0  0  0  0  0  0  0  0
   -2.1651    0.2501    0.0000 N   0  0  0  0  0  0  0  0  0  0  0  0
   -1.2990   -0.2499    0.0000 C   0  0  0  0  0  0  0  0  0  0  0  0
   -1.2990   -1.2499    0.0000 O   0  0  0  0  0  0  0  0  0  0  0  0
    1.2990    0.2501    0.0000 C   0  0  0  0  0  0  0  0  0  0  0  0
    1.2990    1.2500    0.0000 O   0  0  0  0  0  0  0  0  0  0  0  0
    0.4330   -0.2501    0.0000 C   0  0  0  0  0  0  0  0  0  0  0  0
    0.4330   -1.2500    0.0000 N   0  0  0  0  0  0  0  0  0  0  0  0
    2.1649   -0.2501    0.0000 N   0  0  0  0  0  0  0  0  0  0  0  0
  5  9  1  0
  7  5  1  0
  7  1  1  0
  3  1  1  0
  2  3  1  0
  3  4  2  0
  5  6  2  0
  7  8  1  1
M  END
>  <ChEBI ID>  (182) 
CHEBI:145898

>  <ChEBI Name>  (182) 
L-asparagine amide residue

>  <Star>  (182) 
2

>  <SMILES>  (182) 
C([C@@H](C(N)=O)N*)C(N)=O

>  <Formulae>  (182) 
C4H8N3O2

>  <Charge>  (182) 
0

>  <Mass>  (182) 
130.125

>  <Monoisotopic Mass>  (182) 
130.06165

>  <Synonyms>  (182) 
C-terminal L-asparagine amide residue

>  <PubChem Database Links>  (182) 
SID: 85345512

$$$$

     RDKit          2D

  9  8  0  0  1  0  0  0  0  0999 V2000
   10.6316  -21.2448    0.0000 C   0  0  0  0  0  0  0  0  0  0  0  0
   10.6316  -20.2448    0.0000 O   0  0  0  0  0  0  0  0  0  0  0  0
    9.7655  -21.7448    0.0000 C   0  0  0  0  0  0  0  0  0  0  0  0
    9.7655  -22.7448    0.0000 N   0  0  0  0  0  0  0  0  0  0  0  0
    8.8996  -21.2448    0.0000 C   0  0  0  0  0  0  0  0  0  0  0  0
    8.0335  -21.7448    0.0000 C   0  0  0  0  0  0  0  0  0  0  0  0
    7.1675  -21.2448    0.0000 O   0  0  0  0  0  0  0  0  0  0  0  0
    8.0335  -22.7448    0.0000 O   0  0  0  0  0  0  0  0  0  0  0  0
   11.4977  -21.7447    0.0000 N   0  0  0  0  0  0  0  0  0  0  0  0
  1  9  1  0
  2  1  2  0
  3  1  1  0
  3  4  1  1
  3  5  1  0
  6  5  1  0
  7  6  1  0
  8  6  2  0
M  END
>  <ChEBI ID>  (183) 
CHEBI:145899

>  <ChEBI Name>  (183) 
L-aspartate 1-amide residue

>  <Star>  (183) 
2

>  <SMILES>  (183) 
C(N)(=O)[C@@H](N*)CC([O-])=O

>  <Formulae>  (183) 
C4H6N2O3

>  <Charge>  (183) 
-1

>  <Mass>  (183) 
130.102

>  <Monoisotopic Mass>  (183) 
130.03784

>  <Synonyms>  (183) 
C-terminal L-aspartate 1-amide residue

>  <PubChem Database Links>  (183) 
SID: 85345513

$$$$

     RDKit          2D

 10  9  0  0  1  0  0  0  0  0999 V2000
   17.6106  -10.0147    0.0000 C   0  0  0  0  0  0  0  0  0  0  0  0
   17.6106   -9.0147    0.0000 O   0  0  0  0  0  0  0  0  0  0  0  0
   16.7445  -10.5147    0.0000 C   0  0  0  0  0  0  0  0  0  0  0  0
   16.7445  -11.5147    0.0000 N   0  0  0  0  0  0  0  0  0  0  0  0
   15.8786  -10.0147    0.0000 C   0  0  0  0  0  0  0  0  0  0  0  0
   14.1465  -10.0146    0.0000 C   0  0  0  0  0  0  0  0  0  0  0  0
   14.1465   -9.0146    0.0000 O   0  0  0  0  0  0  0  0  0  0  0  0
   13.2804  -10.5146    0.0000 O   0  0  0  0  0  0  0  0  0  0  0  0
   15.0125  -10.5147    0.0000 C   0  0  0  0  0  0  0  0  0  0  0  0
   18.4766  -10.5147    0.0000 N   0  0  0  0  0  0  0  0  0  0  0  0
  1 10  1  0
  2  1  2  0
  3  1  1  0
  3  4  1  1
  3  5  1  0
  7  6  2  0
  8  6  1  0
  9  6  1  0
  5  9  1  0
M  END
>  <ChEBI ID>  (184) 
CHEBI:145903

>  <ChEBI Name>  (184) 
L-glutamate 1-amide residue

>  <Star>  (184) 
2

>  <SMILES>  (184) 
C(N)(=O)[C@@H](N*)CCC(=O)[O-]

>  <Formulae>  (184) 
C5H8N2O3

>  <Charge>  (184) 
-1

>  <Mass>  (184) 
144.129

>  <Monoisotopic Mass>  (184) 
144.05349

>  <Synonyms>  (184) 
C-terminal L-glutamate 1-amide residue

>  <PubChem Database Links>  (184) 
SID: 85345517

$$$$

     RDKit          2D

 10  9  0  0  1  0  0  0  0  0999 V2000
    1.6454    1.1499    0.0000 O   0  0  0  0  0  0  0  0  0  0  0  0
    1.6454    0.1499    0.0000 C   0  0  0  0  0  0  0  0  0  0  0  0
    2.5115   -0.3499    0.0000 N   0  0  0  0  0  0  0  0  0  0  0  0
    0.7794   -0.3501    0.0000 C   0  0  0  0  0  0  0  0  0  0  0  0
   -0.0865    0.1499    0.0000 C   0  0  0  0  0  0  0  0  0  0  0  0
   -0.9526   -0.3501    0.0000 C   0  0  0  0  0  0  0  0  0  0  0  0
   -1.8186    0.1501    0.0000 C   0  0  0  0  0  0  0  0  0  0  0  0
   -2.6847   -0.3499    0.0000 N   0  0  0  0  0  0  0  0  0  0  0  0
   -1.8186    1.1500    0.0000 O   0  0  0  0  0  0  0  0  0  0  0  0
    0.7794   -1.3500    0.0000 N   0  0  0  0  0  0  0  0  0  0  0  0
  2  1  2  0
  3  2  1  0
  4  2  1  0
  4 10  1  1
  4  5  1  0
  6  5  1  0
  9  7  2  0
  8  7  1  0
  6  7  1  0
M  END
>  <ChEBI ID>  (185) 
CHEBI:145904

>  <ChEBI Name>  (185) 
L-glutamine amide residue

>  <Star>  (185) 
2

>  <SMILES>  (185) 
O=C(N)[C@@H](N*)CCC(=O)N

>  <Formulae>  (185) 
C5H10N3O2

>  <Charge>  (185) 
0

>  <Mass>  (185) 
144.152

>  <Monoisotopic Mass>  (185) 
144.07730

>  <Synonyms>  (185) 
C-terminal L-glutamine amide residue

>  <PubChem Database Links>  (185) 
SID: 85345518

$$$$

     RDKit          2D

  5  4  0  0  1  0  0  0  0  0999 V2000
   -0.8661    0.1667    0.0000 N   0  0  0  0  0  0  0  0  0  0  0  0
    0.0000   -0.3333    0.0000 C   0  0  0  0  0  0  0  0  0  0  0  0
    0.8661    0.1667    0.0000 C   0  0  0  0  0  0  0  0  0  0  0  0
    0.8659    1.1668    0.0000 O   0  0  0  0  0  0  0  0  0  0  0  0
    1.7319   -0.3331    0.0000 N   0  0  0  0  0  0  0  0  0  0  0  0
  2  1  1  0
  2  3  1  0
  4  3  2  0
  5  3  1  0
M  END
>  <ChEBI ID>  (186) 
CHEBI:145906

>  <ChEBI Name>  (186) 
glycine amide residue

>  <Star>  (186) 
2

>  <SMILES>  (186) 
N(*)CC(=O)N

>  <Formulae>  (186) 
C2H5N2O

>  <Charge>  (186) 
0

>  <Mass>  (186) 
73.074

>  <Monoisotopic Mass>  (186) 
73.04019

>  <Synonyms>  (186) 
C-terminal glycine amide residue

>  <PubChem Database Links>  (186) 
SID: 85345520

$$$$

     RDKit          2D

 11 11  0  0  1  0  0  0  0  0999 V2000
   25.1393  -10.9885    0.0000 C   0  0  0  0  0  0  0  0  0  0  0  0
   25.1393   -9.9885    0.0000 O   0  0  0  0  0  0  0  0  0  0  0  0
   24.2733  -11.4885    0.0000 C   0  0  0  0  0  0  0  0  0  0  0  0
   24.2733  -12.4885    0.0000 N   0  0  0  0  0  0  0  0  0  0  0  0
   23.4073  -10.9885    0.0000 C   0  0  0  0  0  0  0  0  0  0  0  0
   22.5412  -11.4885    0.0000 C   0  0  0  0  0  0  0  0  0  0  0  0
   21.6278  -11.0817    0.0000 N   0  0  0  0  0  0  0  0  0  0  0  0
   22.4367  -12.4830    0.0000 C   0  0  0  0  0  0  0  0  0  0  0  0
   20.9586  -11.8249    0.0000 C   0  0  0  0  0  0  0  0  0  0  0  0
   21.4586  -12.6909    0.0000 N   0  0  0  0  0  0  0  0  0  0  0  0
   26.0053  -11.4885    0.0000 N   0  0  0  0  0  0  0  0  0  0  0  0
  1 11  1  0
  2  1  2  0
  3  1  1  0
  3  4  1  1
  3  5  1  0
  7  6  1  0
  8  6  2  0
  9  7  2  0
 10  8  1  0
  9 10  1  0
  6  5  1  0
M  END
>  <ChEBI ID>  (187) 
CHEBI:145909

>  <ChEBI Name>  (187) 
L-histidine amide residue

>  <Star>  (187) 
2

>  <SMILES>  (187) 
C(N)(=O)[C@@H](N*)CC=1N=CNC1

>  <Formulae>  (187) 
C6H9N4O

>  <Charge>  (187) 
0

>  <Mass>  (187) 
153.162

>  <Monoisotopic Mass>  (187) 
153.07764

>  <Synonyms>  (187) 
C-terminal L-histidine amide residue

>  <PubChem Database Links>  (187) 
SID: 85345523

$$$$

     RDKit          2D

 10  9  0  0  0  0  0  0  0  0999 V2000
    0.4330    0.2499    0.0000 C   0  0  0  0  0  0  0  0  0  0  0  0
   -0.4330   -0.2501    0.0000 C   0  0  0  0  0  0  0  0  0  0  0  0
   -1.2990    0.2499    0.0000 C   0  0  0  0  0  0  0  0  0  0  0  0
   -2.1651   -0.2501    0.0000 C   0  0  0  0  0  0  0  0  0  0  0  0
   -3.0310    0.2499    0.0000 N   0  0  0  0  0  0  0  0  0  0  0  0
    2.1651    0.2501    0.0000 C   0  0  0  0  0  0  0  0  0  0  0  0
    2.1651    1.2500    0.0000 O   0  0  0  0  0  0  0  0  0  0  0  0
    1.2990   -0.2501    0.0000 C   0  0  0  0  0  0  0  0  0  0  0  0
    1.2990   -1.2500    0.0000 N   0  0  0  0  0  0  0  0  0  0  0  0
    3.0311   -0.2499    0.0000 N   0  0  0  0  0  0  0  0  0  0  0  0
 10  6  1  0
  8  6  1  0
  8  1  1  0
  2  1  1  0
  3  2  1  0
  4  3  1  0
  5  4  1  0
  6  7  2  0
  8  9  1  1
M  END
>  <ChEBI ID>  (188) 
CHEBI:145912

>  <ChEBI Name>  (188) 
L-lysine amide(1+) residue

>  <Star>  (188) 
2

>  <SMILES>  (188) 
C([C@@H](C(N)=O)N*)CCC[NH3+]

>  <Formulae>  (188) 
C6H15N3O

>  <Charge>  (188) 
+1

>  <Mass>  (188) 
145.203

>  <Monoisotopic Mass>  (188) 
145.12151

>  <Synonyms>  (188) 
C-terminal L-lysine amide residue

>  <PubChem Database Links>  (188) 
SID: 85345526

$$$$

     RDKit          2D

  9  8  0  0  1  0  0  0  0  0999 V2000
    1.4434    1.2778    0.0000 O   0  0  0  0  0  0  0  0  0  0  0  0
    1.4434    0.2778    0.0000 C   0  0  0  0  0  0  0  0  0  0  0  0
    2.3094   -0.2222    0.0000 N   0  0  0  0  0  0  0  0  0  0  0  0
    0.5773   -0.2222    0.0000 C   0  0  0  0  0  0  0  0  0  0  0  0
   -0.2887    0.2778    0.0000 C   0  0  0  0  0  0  0  0  0  0  0  0
   -1.1547   -0.2222    0.0000 C   0  0  0  0  0  0  0  0  0  0  0  0
   -2.0207    0.2778    0.0000 S   0  0  0  0  0  0  0  0  0  0  0  0
   -2.8868   -0.2222    0.0000 C   0  0  0  0  0  0  0  0  0  0  0  0
    0.5773   -1.2222    0.0000 N   0  0  0  0  0  0  0  0  0  0  0  0
  2  1  2  0
  3  2  1  0
  4  2  1  0
  4  9  1  1
  4  5  1  0
  6  5  1  0
  7  6  1  0
  8  7  1  0
M  END
>  <ChEBI ID>  (189) 
CHEBI:145913

>  <ChEBI Name>  (189) 
L-methionine amide residue

>  <Star>  (189) 
2

>  <SMILES>  (189) 
O=C(N)[C@@H](N*)CCSC

>  <Formulae>  (189) 
C5H11N2OS

>  <Charge>  (189) 
0

>  <Mass>  (189) 
147.220

>  <Monoisotopic Mass>  (189) 
147.05921

>  <Synonyms>  (189) 
C-terminal L-methionine amide residue

>  <PubChem Database Links>  (189) 
SID: 85345527

$$$$

     RDKit          2D

  8  8  0  0  1  0  0  0  0  0999 V2000
    2.0159    0.4353    0.0000 O   0  0  0  0  0  0  0  0  0  0  0  0
    1.2605   -0.2200    0.0000 C   0  0  0  0  0  0  0  0  0  0  0  0
    1.4503   -1.2018    0.0000 N   0  0  0  0  0  0  0  0  0  0  0  0
    0.3153    0.1064    0.0000 C   0  0  0  0  0  0  0  0  0  0  0  0
    0.0239    1.0630    0.0000 C   0  0  0  0  0  0  0  0  0  0  0  0
   -0.9760    1.0815    0.0000 C   0  0  0  0  0  0  0  0  0  0  0  0
   -1.3024    0.1362    0.0000 C   0  0  0  0  0  0  0  0  0  0  0  0
   -0.5044   -0.4663    0.0000 N   0  0  0  0  0  0  0  0  0  0  0  0
  7  6  1  0
  2  1  2  0
  3  2  1  0
  4  2  1  1
  6  5  1  0
  5  4  1  0
  4  8  1  0
  7  8  1  0
M  END
>  <ChEBI ID>  (190) 
CHEBI:145914

>  <ChEBI Name>  (190) 
L-proline amide residue

>  <Star>  (190) 
2

>  <SMILES>  (190) 
O=C(N)[C@@H]1CCCN1*

>  <Formulae>  (190) 
C5H9N2O

>  <Charge>  (190) 
0

>  <Mass>  (190) 
113.138

>  <Monoisotopic Mass>  (190) 
113.07149

>  <Synonyms>  (190) 
C-terminal L-proline amide residue

>  <PubChem Database Links>  (190) 
SID: 85345528

$$$$

     RDKit          2D

  7  6  0  0  1  0  0  0  0  0999 V2000
    0.7423    0.2857    0.0000 C   0  0  0  0  0  0  0  0  0  0  0  0
   -0.1238   -0.2143    0.0000 C   0  0  0  0  0  0  0  0  0  0  0  0
   -0.9897    0.2857    0.0000 C   0  0  0  0  0  0  0  0  0  0  0  0
    0.7423    1.2857    0.0000 O   0  0  0  0  0  0  0  0  0  0  0  0
   -1.8558   -0.2143    0.0000 O   0  0  0  0  0  0  0  0  0  0  0  0
   -0.1238   -1.2143    0.0000 N   0  0  0  0  0  0  0  0  0  0  0  0
    1.6084   -0.2143    0.0000 N   0  0  0  0  0  0  0  0  0  0  0  0
  2  1  1  0
  4  1  2  0
  7  1  1  0
  2  3  1  0
  2  6  1  1
  5  3  1  0
M  END
>  <ChEBI ID>  (191) 
CHEBI:145915

>  <ChEBI Name>  (191) 
L-serine amide residue

>  <Star>  (191) 
2

>  <SMILES>  (191) 
C([C@H](CO)N*)(=O)N

>  <Formulae>  (191) 
C3H7N2O2

>  <Charge>  (191) 
0

>  <Mass>  (191) 
103.100

>  <Monoisotopic Mass>  (191) 
103.05075

>  <Synonyms>  (191) 
C-terminal L-serine amide residue

>  <PubChem Database Links>  (191) 
SID: 85345529

$$$$

     RDKit          2D

  8  7  0  0  1  0  0  0  0  0999 V2000
    0.8661    1.1250    0.0000 O   0  0  0  0  0  0  0  0  0  0  0  0
    0.8661    0.1250    0.0000 C   0  0  0  0  0  0  0  0  0  0  0  0
    0.0000   -0.3750    0.0000 C   0  0  0  0  0  0  0  0  0  0  0  0
   -0.8661    0.1250    0.0000 C   0  0  0  0  0  0  0  0  0  0  0  0
   -0.8661    1.1250    0.0000 O   0  0  0  0  0  0  0  0  0  0  0  0
   -1.7320   -0.3750    0.0000 C   0  0  0  0  0  0  0  0  0  0  0  0
    0.0000   -1.3750    0.0000 N   0  0  0  0  0  0  0  0  0  0  0  0
    1.7321   -0.3750    0.0000 N   0  0  0  0  0  0  0  0  0  0  0  0
  2  1  2  0
  8  2  1  0
  3  2  1  0
  3  7  1  1
  4  3  1  0
  4  5  1  0
  4  6  1  1
M  END
>  <ChEBI ID>  (192) 
CHEBI:145916

>  <ChEBI Name>  (192) 
L-threonine amide residue

>  <Star>  (192) 
2

>  <SMILES>  (192) 
O=C(N)[C@@H](N*)[C@H](O)C

>  <Formulae>  (192) 
C4H9N2O2

>  <Charge>  (192) 
0

>  <Mass>  (192) 
117.127

>  <Monoisotopic Mass>  (192) 
117.06640

>  <Synonyms>  (192) 
C-terminal L-threonine amide residue

>  <PubChem Database Links>  (192) 
SID: 85345530

$$$$

     RDKit          2D

 15 16  0  0  1  0  0  0  0  0999 V2000
    0.0039   -0.3182    0.0000 C   0  0  0  0  0  0  0  0  0  0  0  0
   -0.1006   -1.3127    0.0000 C   0  0  0  0  0  0  0  0  0  0  0  0
   -1.0788   -1.5206    0.0000 N   0  0  0  0  0  0  0  0  0  0  0  0
   -1.5788   -0.6547    0.0000 C   0  0  0  0  0  0  0  0  0  0  0  0
   -0.9097    0.0885    0.0000 C   0  0  0  0  0  0  0  0  0  0  0  0
   -1.2187    1.0395    0.0000 C   0  0  0  0  0  0  0  0  0  0  0  0
   -2.5570   -0.4467    0.0000 C   0  0  0  0  0  0  0  0  0  0  0  0
   -2.8659    0.5044    0.0000 C   0  0  0  0  0  0  0  0  0  0  0  0
   -2.1968    1.2475    0.0000 C   0  0  0  0  0  0  0  0  0  0  0  0
    2.6019    1.1818    0.0000 O   0  0  0  0  0  0  0  0  0  0  0  0
    2.6019    0.1818    0.0000 C   0  0  0  0  0  0  0  0  0  0  0  0
    1.7359   -0.3182    0.0000 C   0  0  0  0  0  0  0  0  0  0  0  0
    0.8699    0.1818    0.0000 C   0  0  0  0  0  0  0  0  0  0  0  0
    1.7359   -1.3182    0.0000 N   0  0  0  0  0  0  0  0  0  0  0  0
    3.4680   -0.3182    0.0000 N   0  0  0  0  0  0  0  0  0  0  0  0
  1  2  2  0
  1  5  1  0
  2  3  1  0
  3  4  1  0
  4  5  2  0
  4  7  1  0
  5  6  1  0
  6  9  2  0
  7  8  2  0
  8  9  1  0
 11 10  2  0
 15 11  1  0
 12 11  1  0
 12 14  1  1
 12 13  1  0
  1 13  1  0
M  END
>  <ChEBI ID>  (193) 
CHEBI:145917

>  <ChEBI Name>  (193) 
L-tryptophan amide residue

>  <Star>  (193) 
2

>  <SMILES>  (193) 
C1(=CNC2=C1C=CC=C2)C[C@@H](C(=O)N)N*

>  <Formulae>  (193) 
C11H12N3O

>  <Charge>  (193) 
0

>  <Mass>  (193) 
202.233

>  <Monoisotopic Mass>  (193) 
202.09804

>  <Synonyms>  (193) 
C-terminal L-tryptophan amide residue

>  <PubChem Database Links>  (193) 
SID: 85345531

$$$$

     RDKit          2D

 13 13  0  0  1  0  0  0  0  0999 V2000
    2.1937    1.7707    0.0000 O   0  0  0  0  0  0  0  0  0  0  0  0
    2.1937    0.7707    0.0000 C   0  0  0  0  0  0  0  0  0  0  0  0
    1.3276    0.2707    0.0000 C   0  0  0  0  0  0  0  0  0  0  0  0
    0.4617    0.7707    0.0000 C   0  0  0  0  0  0  0  0  0  0  0  0
   -0.4044    0.2707    0.0000 C   0  0  0  0  0  0  0  0  0  0  0  0
   -0.4044   -0.7293    0.0000 C   0  0  0  0  0  0  0  0  0  0  0  0
   -1.2704    0.7707    0.0000 C   0  0  0  0  0  0  0  0  0  0  0  0
   -2.1364    0.2707    0.0000 C   0  0  0  0  0  0  0  0  0  0  0  0
   -1.2704   -1.2293    0.0000 C   0  0  0  0  0  0  0  0  0  0  0  0
   -2.1364   -0.7293    0.0000 C   0  0  0  0  0  0  0  0  0  0  0  0
   -3.0024   -1.2293    0.0000 O   0  0  0  0  0  0  0  0  0  0  0  0
    1.3276   -0.7293    0.0000 N   0  0  0  0  0  0  0  0  0  0  0  0
    3.0598    0.2707    0.0000 N   0  0  0  0  0  0  0  0  0  0  0  0
  2  1  2  0
 13  2  1  0
  3  2  1  0
  3 12  1  1
  3  4  1  0
  5  4  1  0
  6  5  2  0
  7  5  1  0
  8  7  2  0
  9  6  1  0
 10  8  1  0
  9 10  2  0
 11 10  1  0
M  END
>  <ChEBI ID>  (194) 
CHEBI:145918

>  <ChEBI Name>  (194) 
L-tyrosine amide residue

>  <Star>  (194) 
2

>  <SMILES>  (194) 
O=C(N)[C@@H](N*)CC=1C=CC(=CC1)O

>  <Formulae>  (194) 
C9H11N2O2

>  <Charge>  (194) 
0

>  <Mass>  (194) 
179.196

>  <Monoisotopic Mass>  (194) 
179.08205

>  <Synonyms>  (194) 
C-terminal L-tyrosine amide residue

>  <PubChem Database Links>  (194) 
SID: 85345532

$$$$

     RDKit          2D

  8  7  0  0  1  0  0  0  0  0999 V2000
    0.8661    0.1250    0.0000 C   0  0  0  0  0  0  0  0  0  0  0  0
    0.0000   -0.3750    0.0000 C   0  0  0  0  0  0  0  0  0  0  0  0
   -0.8661    0.1250    0.0000 C   0  0  0  0  0  0  0  0  0  0  0  0
   -0.8661    1.1250    0.0000 C   0  0  0  0  0  0  0  0  0  0  0  0
   -1.7320   -0.3750    0.0000 C   0  0  0  0  0  0  0  0  0  0  0  0
    0.0000   -1.3750    0.0000 N   0  0  0  0  0  0  0  0  0  0  0  0
    1.7320   -0.3750    0.0000 N   0  0  0  0  0  0  0  0  0  0  0  0
    0.8661    1.1250    0.0000 O   0  0  0  0  0  0  0  0  0  0  0  0
  1  8  2  0
  7  1  1  0
  2  1  1  0
  2  6  1  1
  3  2  1  0
  4  3  1  0
  5  3  1  0
M  END
>  <ChEBI ID>  (195) 
CHEBI:145919

>  <ChEBI Name>  (195) 
L-valine amide residue

>  <Star>  (195) 
2

>  <SMILES>  (195) 
C(=O)(N)[C@@H](N*)C(C)C

>  <Formulae>  (195) 
C5H11N2O

>  <Charge>  (195) 
0

>  <Mass>  (195) 
115.154

>  <Monoisotopic Mass>  (195) 
115.08714

>  <Synonyms>  (195) 
C-terminal L-valine amide residue

>  <PubChem Database Links>  (195) 
SID: 85345533

$$$$

     RDKit          2D

 20 22  0  0  0  0  0  0  0  0999 V2000
   -0.5402    1.3567    0.0000 C   0  0  0  0  0  0  0  0  0  0  0  0
   -0.2333    2.3012    0.0000 C   0  0  0  0  0  0  0  0  0  0  0  0
   -0.8978    3.0393    0.0000 C   0  0  0  0  0  0  0  0  0  0  0  0
   -1.8693    2.8329    0.0000 C   0  0  0  0  0  0  0  0  0  0  0  0
   -2.1762    1.8883    0.0000 C   0  0  0  0  0  0  0  0  0  0  0  0
   -1.5116    1.1501    0.0000 C   0  0  0  0  0  0  0  0  0  0  0  0
    0.2633    0.7729    0.0000 N   0  0  0  0  0  0  0  0  0  0  0  0
    1.6201    2.7978    0.0000 C   0  0  0  0  0  0  0  0  0  0  0  0
    2.4803    2.3012    0.0000 C   0  0  0  0  0  0  0  0  0  0  0  0
    2.2232    1.3418    0.0000 N   0  0  0  0  0  0  0  0  0  0  0  0
    3.3405    2.7978    0.0000 C   0  0  0  0  0  0  0  0  0  0  0  0
    3.3405    3.7910    0.0000 O   0  0  0  0  0  0  0  0  0  0  0  0
    4.2005    2.3012    0.0000 O   0  0  0  0  0  0  0  0  0  0  0  0
    1.0668    1.3567    0.0000 C   0  0  0  0  0  0  0  0  0  0  0  0
    0.7600    2.3012    0.0000 C   0  0  0  0  0  0  0  0  0  0  0  0
    0.7600    3.2944    0.0000 C   0  0  0  0  0  0  0  0  0  0  0  0
    1.6201    3.7910    0.0000 C   0  0  0  0  0  0  0  0  0  0  0  0
    2.4803    5.2809    0.0000 C   0  0  0  0  0  0  0  0  0  0  0  0
    1.6201    4.7843    0.0000 C   0  0  0  0  0  0  0  0  0  0  0  0
    0.7600    5.2809    0.0000 C   0  0  0  0  0  0  0  0  0  0  0  0
 14  7  1  6
  7  1  1  0
 14 15  1  0
 15  2  1  0
  6  1  2  0
  1  2  1  0
  3  2  2  0
  3  4  1  0
  4  5  2  0
  5  6  1  0
 15  8  1  0
  8  9  1  0
  9 11  1  1
  9 10  1  0
 10 14  1  0
 11 12  2  0
 11 13  1  0
 15 16  1  1
 16 17  1  0
 17 19  2  3
 19 18  1  0
 19 20  1  0
V   13 *
M  END
>  <ChEBI ID>  (196) 
CHEBI:147338

>  <ChEBI Name>  (196) 
(2S,3S)-3-prenyl-2,3-dihydro-2,N(alpha)-cyclo-L-tryptophan residue

>  <Star>  (196) 
2

>  <Definition>  (196) 
A 3-prenylated cyclized Trp residue found in Kawaguchipeptin A, a cyclic undecapeptide isolated from the cyanobacterium Microcystis aeruginosa (see article DOI=10.1016/0040-4020(96)00452-8)

>  <SMILES>  (196) 
C1=2N[C@@]3([C@](C1=CC=CC2)(C[C@@H](C(=O)*)N3*)CC=C(C)C)[H]

>  <Formulae>  (196) 
C16H18N2O

>  <Charge>  (196) 
0

>  <Mass>  (196) 
254.328

>  <Monoisotopic Mass>  (196) 
254.14191

>  <Synonyms>  (196) 
(2S,3S)-3-prenyl-2,3-dihydro-2,N(alpha)-cyclo-L-tryptophan residue

>  <PubMed citation Links>  (196) 
26846478

>  <PubChem Database Links>  (196) 
SID: 85346931

$$$$

     RDKit          2D

  6  5  0  0  0  0  0  0  0  0999 V2000
    0.4330    0.2499    0.0000 C   0  0  0  0  0  0  0  0  0  0  0  0
   -0.4330   -0.2499    0.0000 C   0  0  0  0  0  0  0  0  0  0  0  0
    1.2990   -0.2501    0.0000 O   0  0  0  0  0  0  0  0  0  0  0  0
   -1.2990    0.2501    0.0000 C   0  0  0  0  0  0  0  0  0  0  0  0
    0.4330    1.2499    0.0000 O   0  0  0  0  0  0  0  0  0  0  0  0
   -0.4330   -1.2500    0.0000 O   0  0  0  0  0  0  0  0  0  0  0  0
  1  5  2  0
  2  1  1  0
  2  6  1  0
  1  3  1  0
  2  4  1  6
V    3 *
M  END
>  <ChEBI ID>  (197) 
CHEBI:149487

>  <ChEBI Name>  (197) 
(R)-lactoyl group

>  <Star>  (197) 
2

>  <SMILES>  (197) 
C[C@@H](O)C(-*)=O

>  <Formulae>  (197) 
C3H5O2

>  <Charge>  (197) 
0

>  <Mass>  (197) 
73.071

>  <Monoisotopic Mass>  (197) 
73.02895

>  <Synonyms>  (197) 
(R)-lactate group
D-lactate group
D-lactoyl group

>  <PubMed citation Links>  (197) 
21802007

>  <PubChem Database Links>  (197) 
SID: 85349045

>  <Last Modified>  (197) 
15 Aug 2023

$$$$

     RDKit          2D

  9  8  0  0  0  0  0  0  0  0999 V2000
   -1.6072   -0.3215    0.0000 S   0  0  0  0  0  0  0  0  0  0  0  0
   -0.7411    0.1785    0.0000 C   0  0  0  0  0  0  0  0  0  0  0  0
    0.1248   -0.3215    0.0000 C   0  0  0  0  0  0  0  0  0  0  0  0
   -2.4732    0.1785    0.0000 N   0  0  0  0  0  0  0  0  0  0  0  0
    0.9909    0.1785    0.0000 C   0  0  0  0  0  0  0  0  0  0  0  0
    0.1248   -1.3215    0.0000 N   0  0  0  0  0  0  0  0  0  0  0  0
    1.8570   -0.3215    0.0000 O   0  0  0  0  0  0  0  0  0  0  0  0
    0.9909    1.1785    0.0000 O   0  0  0  0  0  0  0  0  0  0  0  0
   -3.3392   -0.3215    0.0000 O   0  0  0  0  0  0  0  0  0  0  0  0
  1  2  1  0
  3  2  1  0
  1  4  1  0
  3  5  1  0
  3  6  1  1
  5  7  1  0
  5  8  2  0
  4  9  2  0
V    7 *
M  END
>  <ChEBI ID>  (198) 
CHEBI:149494

>  <ChEBI Name>  (198) 
S-nitroso-L-cysteine residue

>  <Star>  (198) 
3

>  <Definition>  (198) 
An L-alpha-amino-acid residue derived from S-nitroso-L-cysteine.

>  <SMILES>  (198) 
S(C[C@@H](C(*)=O)N*)N=O

>  <Formulae>  (198) 
C3H4N2O2S

>  <Charge>  (198) 
0

>  <Mass>  (198) 
132.142

>  <Monoisotopic Mass>  (198) 
131.99935

>  <Synonyms>  (198) 
NO-L-cysteine residue
S-nitroso-L-cysteine residue
S-nitrosyl-L-cysteine residue

>  <PubMed citation Links>  (198) 
20972425
20837516
9843411
8626764
8637569

>  <PubChem Database Links>  (198) 
SID: 85349052

>  <Rhea Database Links>  (198) 
RHEA:67152
RHEA:67140
RHEA:67148
RHEA:66684

>  <Last Modified>  (198) 
12 May 2020

$$$$

     RDKit          2D

 17 16  0  0  1  0  0  0  0  0999 V2000
   16.3751   -6.5500    0.0000 C   0  0  0  0  0  0  0  0  0  0  0  0
   15.5130   -7.0476    0.0000 C   0  0  0  0  0  0  0  0  0  0  0  0
   14.6512   -6.5500    0.0000 C   0  0  0  0  0  0  0  0  0  0  0  0
   17.2372   -7.0476    0.0000 O   0  0  0  0  0  0  0  0  0  0  0  0
   16.3751   -5.5546    0.0000 O   0  0  0  0  0  0  0  0  0  0  0  0
   15.5130   -8.0428    0.0000 N   0  0  0  0  0  0  0  0  0  0  0  0
   13.7891   -7.0476    0.0000 S   0  0  0  0  0  0  0  0  0  0  0  0
   11.0312   -5.6075    0.0000 P   0  0  0  0  0  0  0  0  0  0  0  0
   10.1694   -6.1050    0.0000 O   0  0  0  0  0  0  0  0  0  0  0  0
   11.0313   -4.6121    0.0000 O   0  0  0  0  0  0  0  0  0  0  0  0
   10.7737   -6.5688    0.0000 O   0  0  0  0  0  0  0  0  0  0  0  0
   12.9271   -6.5498    0.0000 C   0  0  0  0  0  0  0  0  0  0  0  0
   12.6306   -7.5861    0.0000 C   0  0  0  0  0  0  0  0  0  0  0  0
   12.8733   -5.6893    0.0000 C   0  0  0  0  0  0  0  0  0  0  0  0
   12.0651   -6.0522    0.0000 O   0  0  0  0  0  0  0  0  0  0  0  0
   12.0113   -5.1915    0.0000 O   0  0  0  0  0  0  0  0  0  0  0  0
   13.7354   -5.1916    0.0000 O   0  0  0  0  0  0  0  0  0  0  0  0
  2  1  1  0
  5  1  2  0
  4  1  1  0
  2  3  1  0
  2  6  1  1
  7  3  1  0
  8  9  1  0
  8 10  2  0
  8 11  1  0
  7 12  1  0
 12 13  1  0
 12 14  1  0
 12 15  1  0
 15  8  1  0
 14 16  2  0
 14 17  1  0
V    4 *
M  END
>  <ChEBI ID>  (199) 
CHEBI:149496

>  <ChEBI Name>  (199) 
S-[1-carboxy-1-(phosphonooxy)ethyl]-L-cysteine(3-) residue

>  <Star>  (199) 
2

>  <SMILES>  (199) 
C([C@H](CSC(C)(C(=O)[O-])OP([O-])(=O)[O-])N*)(=O)*

>  <Formulae>  (199) 
C6H7NO7PS

>  <Charge>  (199) 
-3

>  <Mass>  (199) 
268.162

>  <Monoisotopic Mass>  (199) 
267.96808

>  <Synonyms>  (199) 
S-[1-carboxy-1-(phosphonooxy)ethyl]-L-cysteine residue

>  <PubMed citation Links>  (199) 
22378791
4696757
7999765

>  <PubChem Database Links>  (199) 
SID: 85349054

$$$$

     RDKit          2D

 11 10  0  0  0  0  0  0  0  0999 V2000
   -3.1071    0.9642    0.0000 O   0  0  0  0  0  0  0  0  0  0  0  0
   -2.2411    1.4642    0.0000 C   0  0  0  0  0  0  0  0  0  0  0  0
   -2.2411    2.4642    0.0000 O   0  0  0  0  0  0  0  0  0  0  0  0
   -1.3751    0.9642    0.0000 C   0  0  0  0  0  0  0  0  0  0  0  0
   -0.5091    1.4642    0.0000 C   0  0  0  0  0  0  0  0  0  0  0  0
    0.3570    0.9642    0.0000 C   0  0  0  0  0  0  0  0  0  0  0  0
   -1.3752   -0.0358    0.0000 O   0  0  0  0  0  0  0  0  0  0  0  0
    1.2230    1.4643    0.0000 C   0  0  0  0  0  0  0  0  0  0  0  0
    2.0890    0.9643    0.0000 C   0  0  0  0  0  0  0  0  0  0  0  0
    1.2230    2.4643    0.0000 C   0  0  0  0  0  0  0  0  0  0  0  0
    2.0890    1.9643    0.0000 C   0  0  0  0  0  0  0  0  0  0  0  0
  1  2  1  0
  2  3  2  0
  2  4  1  0
  4  5  1  0
  5  6  1  0
  4  7  2  0
  6  8  1  0
  8  9  1  0
  8 10  1  0
  8 11  1  0
V    1 *
M  END
>  <ChEBI ID>  (200) 
CHEBI:149505

>  <ChEBI Name>  (200) 
2-oxo-5,5-dimethylhexanoyl group

>  <Star>  (200) 
2

>  <Definition>  (200) 
A post-translational modification occurring on the N-terminal Thr residue in polytheonamides.

>  <SMILES>  (200) 
*C(=O)C(CCC(C)(C)C)=O

>  <Formulae>  (200) 
C8H13O2

>  <Charge>  (200) 
0

>  <Mass>  (200) 
141.188

>  <Monoisotopic Mass>  (200) 
141.09155

>  <Synonyms>  (200) 
2-oxo-5,5-dimethylhexanoyl group

>  <PubMed citation Links>  (200) 
22983711

>  <PubChem Database Links>  (200) 
SID: 85349063

$$$$

     RDKit          2D

  7  6  0  0  0  0  0  0  0  0999 V2000
   13.9277  -11.6385    0.0000 C   0  0  0  0  0  0  0  0  0  0  0  0
   15.6597  -11.6385    0.0000 O   0  0  0  0  0  0  0  0  0  0  0  0
   14.7938  -11.1385    0.0000 C   0  0  0  0  0  0  0  0  0  0  0  0
   14.7938  -10.1385    0.0000 O   0  0  0  0  0  0  0  0  0  0  0  0
   12.1956  -11.6385    0.0000 C   0  0  0  0  0  0  0  0  0  0  0  0
   13.0616  -11.1385    0.0000 C   0  0  0  0  0  0  0  0  0  0  0  0
   13.9277  -12.6385    0.0000 O   0  0  0  0  0  0  0  0  0  0  0  0
  6  1  1  0
  1  3  1  0
  3  2  1  0
  3  4  2  0
  6  5  1  0
  1  7  2  0
V    2 *
M  END
>  <ChEBI ID>  (201) 
CHEBI:149508

>  <ChEBI Name>  (201) 
2-oxobutanoyl group

>  <Star>  (201) 
3

>  <SMILES>  (201) 
C(CC)(C(*)=O)=O

>  <Formulae>  (201) 
C4H5O2

>  <Charge>  (201) 
0

>  <Mass>  (201) 
85.081

>  <Monoisotopic Mass>  (201) 
85.02895

>  <IUPAC Names>  (201) 
2-oxobutanoyl

>  <Synonyms>  (201) 
2-ketobutanoyl
2-oxobutanoyl group
CH3-CH2-CO-CO-

>  <PubChem Database Links>  (201) 
SID: 85349066

>  <Last Modified>  (201) 
12 May 2020

$$$$

     RDKit          2D

  9  8  0  0  1  0  0  0  0  0999 V2000
    1.0099    0.3395    0.0000 C   0  0  0  0  0  0  0  0  0  0  0  0
    1.8760   -0.1605    0.0000 O   0  0  0  0  0  0  0  0  0  0  0  0
    0.1440   -0.1605    0.0000 C   0  0  0  0  0  0  0  0  0  0  0  0
   -0.7221    0.3395    0.0000 C   0  0  0  0  0  0  0  0  0  0  0  0
    1.0099    1.3395    0.0000 O   0  0  0  0  0  0  0  0  0  0  0  0
    0.1440   -1.1605    0.0000 N   0  0  0  0  0  0  0  0  0  0  0  0
   -0.7221    1.3395    0.0000 C   0  0  0  0  0  0  0  0  0  0  0  0
   -1.5881   -0.1605    0.0000 C   0  0  0  0  0  0  0  0  0  0  0  0
   -1.5881    0.8395    0.0000 C   0  0  0  0  0  0  0  0  0  0  0  0
  1  5  2  0
  2  1  1  0
  3  1  1  0
  3  6  1  1
  4  3  1  0
  4  7  1  0
  4  8  1  0
  4  9  1  0
V    2 *
M  END
>  <ChEBI ID>  (202) 
CHEBI:149511

>  <ChEBI Name>  (202) 
3-methyl-L-valine residue

>  <Star>  (202) 
2

>  <Definition>  (202) 
A L-valine residue that is substituted by a methyl group at position 3. A post-translational modification occurring on several Val residues in polytheonamides.

>  <SMILES>  (202) 
C(=O)(*)[C@@H](N*)C(C)(C)C

>  <Formulae>  (202) 
C6H11NO

>  <Charge>  (202) 
0

>  <Mass>  (202) 
113.158

>  <Monoisotopic Mass>  (202) 
113.08406

>  <Synonyms>  (202) 
3-methyl-L-valine residue

>  <PubMed citation Links>  (202) 
22983711

>  <PubChem Database Links>  (202) 
SID: 85349069

$$$$

     RDKit          2D

  9  8  0  0  1  0  0  0  0  0999 V2000
    1.0099    0.3395    0.0000 C   0  0  0  0  0  0  0  0  0  0  0  0
    1.8760   -0.1605    0.0000 O   0  0  0  0  0  0  0  0  0  0  0  0
    0.1440   -0.1605    0.0000 C   0  0  0  0  0  0  0  0  0  0  0  0
   -0.7221    0.3395    0.0000 C   0  0  0  0  0  0  0  0  0  0  0  0
    1.0099    1.3395    0.0000 O   0  0  0  0  0  0  0  0  0  0  0  0
    0.1440   -1.1605    0.0000 N   0  0  0  0  0  0  0  0  0  0  0  0
   -0.7221    1.3395    0.0000 C   0  0  0  0  0  0  0  0  0  0  0  0
   -1.5881   -0.1605    0.0000 C   0  0  0  0  0  0  0  0  0  0  0  0
   -1.5881    0.8395    0.0000 C   0  0  0  0  0  0  0  0  0  0  0  0
  1  5  2  0
  2  1  1  0
  3  1  1  0
  3  6  1  6
  4  3  1  0
  4  7  1  0
  4  8  1  0
  4  9  1  0
V    2 *
M  END
>  <ChEBI ID>  (203) 
CHEBI:149513

>  <ChEBI Name>  (203) 
3-methyl-D-valine residue

>  <Star>  (203) 
2

>  <Definition>  (203) 
A D-valine residue that is substituted by a methyl group at position 3. A post-translational modification occurring on several Val residues in polytheonamides.

>  <SMILES>  (203) 
C(=O)(*)[C@H](N*)C(C)(C)C

>  <Formulae>  (203) 
C6H11NO

>  <Charge>  (203) 
0

>  <Mass>  (203) 
113.158

>  <Monoisotopic Mass>  (203) 
113.08406

>  <Synonyms>  (203) 
3-methyl-D-valine residue

>  <PubMed citation Links>  (203) 
22983711

>  <PubChem Database Links>  (203) 
SID: 85349071

$$$$

     RDKit          2D

 10  9  0  0  1  0  0  0  0  0999 V2000
   13.0370   -5.8464    0.0000 C   0  0  0  0  0  0  0  0  0  0  0  0
   14.7690   -5.8464    0.0000 C   0  0  0  0  0  0  0  0  0  0  0  0
   12.1709   -6.3464    0.0000 C   0  0  0  0  0  0  0  0  0  0  0  0
   13.9030   -6.3464    0.0000 C   0  0  0  0  0  0  0  0  0  0  0  0
   14.7690   -4.8464    0.0000 O   0  0  0  0  0  0  0  0  0  0  0  0
   12.1709   -7.3464    0.0000 O   0  0  0  0  0  0  0  0  0  0  0  0
   11.3050   -5.8464    0.0000 N   0  0  0  0  0  0  0  0  0  0  0  0
   13.9030   -7.3464    0.0000 N   0  0  0  0  0  0  0  0  0  0  0  0
   15.6350   -6.3464    0.0000 O   0  0  0  0  0  0  0  0  0  0  0  0
   10.4389   -6.3464    0.0000 C   0  0  0  0  0  0  0  0  0  0  0  0
  1  3  1  0
  4  1  1  0
  2  4  1  0
  2  5  2  0
  3  6  2  0
  3  7  1  0
  4  8  1  6
  9  2  1  0
  7 10  1  0
V    9 *
M  END
>  <ChEBI ID>  (204) 
CHEBI:149514

>  <ChEBI Name>  (204) 
N(4)-methyl-D-asparagine residue

>  <Star>  (204) 
2

>  <Definition>  (204) 
A D-asparagine residue that is substituted by a methyl group at position N(4). A post-translational modification occurring on several Asn residues in polytheonamides.

>  <SMILES>  (204) 
C(C(=O)NC)[C@H](C(=O)*)N*

>  <Formulae>  (204) 
C5H8N2O2

>  <Charge>  (204) 
0

>  <Mass>  (204) 
128.129

>  <Monoisotopic Mass>  (204) 
128.05858

>  <Synonyms>  (204) 
N(4)-methyl-D-asparagine residue

>  <PubMed citation Links>  (204) 
22983711

>  <PubChem Database Links>  (204) 
SID: 85349072

$$$$

     RDKit          2D

 11 10  0  0  1  0  0  0  0  0999 V2000
    1.6454    1.1499    0.0000 O   0  0  0  0  0  0  0  0  0  0  0  0
    1.6454    0.1499    0.0000 C   0  0  0  0  0  0  0  0  0  0  0  0
    2.5115   -0.3499    0.0000 O   0  0  0  0  0  0  0  0  0  0  0  0
    0.7794   -0.3501    0.0000 C   0  0  0  0  0  0  0  0  0  0  0  0
   -0.0865    0.1499    0.0000 C   0  0  0  0  0  0  0  0  0  0  0  0
   -0.9526   -0.3501    0.0000 C   0  0  0  0  0  0  0  0  0  0  0  0
   -1.8186    0.1501    0.0000 C   0  0  0  0  0  0  0  0  0  0  0  0
   -2.6847   -0.3499    0.0000 N   0  0  0  0  0  0  0  0  0  0  0  0
   -1.8186    1.1500    0.0000 O   0  0  0  0  0  0  0  0  0  0  0  0
    0.7794   -1.3500    0.0000 N   0  0  0  0  0  0  0  0  0  0  0  0
   -0.0865    1.1499    0.0000 C   0  0  0  0  0  0  0  0  0  0  0  0
  2  1  2  0
  3  2  1  0
  4  2  1  0
  4 10  1  1
  5  4  1  0
  6  5  1  0
  9  7  2  0
  8  7  1  0
  6  7  1  0
  5 11  1  6
V    3 *
M  END
>  <ChEBI ID>  (205) 
CHEBI:149515

>  <ChEBI Name>  (205) 
(3S)-3-methyl-L-glutamine residue

>  <Star>  (205) 
2

>  <Definition>  (205) 
A L-glutamine residue that is substituted by a methyl group at position 3 with the configuration (S). A post-translational modification occurring on a Gln residue in polytheonamides.

>  <SMILES>  (205) 
O=C(*)[C@@H](N*)[C@H](CC(=O)N)C

>  <Formulae>  (205) 
C6H10N2O2

>  <Charge>  (205) 
0

>  <Mass>  (205) 
142.156

>  <Monoisotopic Mass>  (205) 
142.07423

>  <Synonyms>  (205) 
(3S)-3-methyl-L-glutamine residue

>  <PubMed citation Links>  (205) 
22983711

>  <PubChem Database Links>  (205) 
SID: 85349073

$$$$

     RDKit          2D

  9  8  0  0  0  0  0  0  0  0999 V2000
    0.8661    0.1250    0.0000 C   0  0  0  0  0  0  0  0  0  0  0  0
    0.0000   -0.3750    0.0000 C   0  0  0  0  0  0  0  0  0  0  0  0
   -0.8661    0.1250    0.0000 C   0  0  0  0  0  0  0  0  0  0  0  0
   -0.8661    1.1250    0.0000 C   0  0  0  0  0  0  0  0  0  0  0  0
   -1.7320   -0.3750    0.0000 C   0  0  0  0  0  0  0  0  0  0  0  0
    0.0000   -1.3750    0.0000 N   0  0  0  0  0  0  0  0  0  0  0  0
    1.7320   -0.3750    0.0000 O   0  0  0  0  0  0  0  0  0  0  0  0
    0.8661    1.1250    0.0000 O   0  0  0  0  0  0  0  0  0  0  0  0
   -1.7321    0.6250    0.0000 O   0  0  0  0  0  0  0  0  0  0  0  0
  1  8  2  0
  7  1  1  0
  2  1  1  0
  2  6  1  6
  3  2  1  0
  4  3  1  0
  3  5  1  0
  3  9  1  0
V    7 *
M  END
>  <ChEBI ID>  (206) 
CHEBI:149516

>  <ChEBI Name>  (206) 
3-hydroxy-D-valine residue

>  <Star>  (206) 
2

>  <Definition>  (206) 
A D-valine residue that is substituted by a hydroxy group at position 3. A post-translational modification occurring on several Val residues in polytheonamides.

>  <SMILES>  (206) 
C(=O)(*)[C@H](N*)C(C)(C)O

>  <Formulae>  (206) 
C5H9NO2

>  <Charge>  (206) 
0

>  <Mass>  (206) 
115.131

>  <Monoisotopic Mass>  (206) 
115.06333

>  <Synonyms>  (206) 
3-hydroxy-D-valine residue

>  <PubMed citation Links>  (206) 
22983711

>  <PubChem Database Links>  (206) 
SID: 85349074

$$$$

     RDKit          2D

 11 10  0  0  1  0  0  0  0  0999 V2000
   13.0370   -5.8464    0.0000 C   0  0  0  0  0  0  0  0  0  0  0  0
   14.7690   -5.8464    0.0000 C   0  0  0  0  0  0  0  0  0  0  0  0
   12.1709   -6.3464    0.0000 C   0  0  0  0  0  0  0  0  0  0  0  0
   13.9030   -6.3464    0.0000 C   0  0  0  0  0  0  0  0  0  0  0  0
   14.7690   -4.8464    0.0000 O   0  0  0  0  0  0  0  0  0  0  0  0
   12.1709   -7.3464    0.0000 O   0  0  0  0  0  0  0  0  0  0  0  0
   11.3050   -5.8464    0.0000 N   0  0  0  0  0  0  0  0  0  0  0  0
   13.9030   -7.3464    0.0000 N   0  0  0  0  0  0  0  0  0  0  0  0
   15.6350   -6.3464    0.0000 O   0  0  0  0  0  0  0  0  0  0  0  0
   10.4389   -6.3464    0.0000 C   0  0  0  0  0  0  0  0  0  0  0  0
   13.0370   -4.8464    0.0000 O   0  0  0  0  0  0  0  0  0  0  0  0
  1  3  1  0
  1  4  1  0
  2  4  1  0
  2  5  2  0
  3  6  2  0
  3  7  1  0
  4  8  1  6
  9  2  1  0
  7 10  1  0
  1 11  1  6
V    9 *
M  END
>  <ChEBI ID>  (207) 
CHEBI:149517

>  <ChEBI Name>  (207) 
(3R)-N(4)-methyl-3-hydroxy-D-asparagine residue

>  <Star>  (207) 
2

>  <Definition>  (207) 
A D-asparagine residue that is substituted by a methyl group at position N(4) and by a hydroxy group at position 3 with (R) configuration. A post-translational modification occurring on several Asn residues in polytheonamides.

>  <SMILES>  (207) 
[C@H](C(=O)NC)([C@H](C(=O)*)N*)O

>  <Formulae>  (207) 
C5H8N2O3

>  <Charge>  (207) 
0

>  <Mass>  (207) 
144.129

>  <Monoisotopic Mass>  (207) 
144.05349

>  <Synonyms>  (207) 
(3R)-N(4)-methyl-3-hydroxy-D-asparagine residue

>  <PubMed citation Links>  (207) 
22983711

>  <PubChem Database Links>  (207) 
SID: 85349075

$$$$

     RDKit          2D

 11 10  0  0  1  0  0  0  0  0999 V2000
    1.4434    1.2778    0.0000 O   0  0  0  0  0  0  0  0  0  0  0  0
    1.4434    0.2778    0.0000 C   0  0  0  0  0  0  0  0  0  0  0  0
    2.3094   -0.2222    0.0000 O   0  0  0  0  0  0  0  0  0  0  0  0
    0.5773   -0.2222    0.0000 C   0  0  0  0  0  0  0  0  0  0  0  0
   -0.2887    0.2778    0.0000 C   0  0  0  0  0  0  0  0  0  0  0  0
   -1.1547   -0.2222    0.0000 C   0  0  0  0  0  0  0  0  0  0  0  0
   -2.0207    0.2778    0.0000 S   0  0  0  0  0  0  0  0  0  0  0  0
   -2.8868   -0.2222    0.0000 C   0  0  0  0  0  0  0  0  0  0  0  0
    0.5773   -1.2222    0.0000 N   0  0  0  0  0  0  0  0  0  0  0  0
   -0.7888    1.1778    0.0000 C   0  0  0  0  0  0  0  0  0  0  0  0
    0.3023    1.1028    0.0000 C   0  0  0  0  0  0  0  0  0  0  0  0
  2  1  2  0
  3  2  1  0
  4  2  1  0
  4  9  1  1
  5  4  1  0
  6  5  1  0
  7  6  1  0
  8  7  1  0
  5 10  1  0
  5 11  1  0
V    3 *
M  END
>  <ChEBI ID>  (208) 
CHEBI:149518

>  <ChEBI Name>  (208) 
3,3-dimethyl-L-methionine residue

>  <Star>  (208) 
2

>  <Definition>  (208) 
An L-methionine residue that is substituted by 2 methyl groups at position 3. A post-translational modification occurring on a Met residue in polytheonamides.

>  <SMILES>  (208) 
O=C(*)[C@@H](N*)C(CSC)(C)C

>  <Formulae>  (208) 
C7H13NOS

>  <Charge>  (208) 
0

>  <Mass>  (208) 
159.251

>  <Monoisotopic Mass>  (208) 
159.07179

>  <Synonyms>  (208) 
3,3-dimethyl-L-methionine residue

>  <PubMed citation Links>  (208) 
22983711

>  <PubChem Database Links>  (208) 
SID: 85349076

$$$$

     RDKit          2D

 15 14  0  0  1  0  0  0  0  0999 V2000
    1.7291    0.2852    0.0000 C   0  0  0  0  0  0  0  0  0  0  0  0
   -0.8646   -0.2139    0.0000 O   0  0  0  0  0  0  0  0  0  0  0  0
   -2.5938   -0.2139    0.0000 O   0  0  0  0  0  0  0  0  0  0  0  0
    0.0000    0.2852    0.0000 C   0  0  0  0  0  0  0  0  0  0  0  0
    0.8646   -0.2139    0.0000 C   0  0  0  0  0  0  0  0  0  0  0  0
   -1.7291    0.2852    0.0000 P   0  0  0  0  0  0  0  0  0  0  0  0
   -1.7291    1.2835    0.0000 O   0  0  0  0  0  0  0  0  0  0  0  0
    1.7291    1.2835    0.0000 O   0  0  0  0  0  0  0  0  0  0  0  0
   -1.7291   -0.7131    0.0000 O   0  0  0  0  0  0  0  0  0  0  0  0
    0.8646   -1.2123    0.0000 N   0  0  0  0  0  0  0  0  0  0  0  0
    2.5938   -0.2139    0.0000 O   0  0  0  0  0  0  0  0  0  0  0  0
   -3.4585    0.2852    0.0000 P   0  0  0  0  0  0  0  0  0  0  0  0
   -4.3230   -0.2139    0.0000 O   0  0  0  0  0  0  0  0  0  0  0  0
   -3.4585    1.2835    0.0000 O   0  0  0  0  0  0  0  0  0  0  0  0
   -3.4745   -0.7381    0.0000 O   0  0  0  0  0  0  0  0  0  0  0  0
  1 11  1  0
  1  8  2  0
  2  4  1  0
  5  1  1  0
  5  4  1  0
  5 10  1  1
  6  2  1  0
  6  3  1  0
  6  7  2  0
  6  9  1  0
  3 12  1  0
 12 13  1  0
 12 14  2  0
 12 15  1  0
V   11 *
M  END
>  <ChEBI ID>  (209) 
CHEBI:149682

>  <ChEBI Name>  (209) 
O-diphosphonato-L-serine(3-) residue

>  <Star>  (209) 
2

>  <SMILES>  (209) 
C(*)(=O)[C@H](COP(OP([O-])(=O)[O-])(=O)[O-])N*

>  <Formulae>  (209) 
C3H4NO8P2

>  <Charge>  (209) 
-3

>  <Mass>  (209) 
244.013

>  <Monoisotopic Mass>  (209) 
243.94121

>  <Synonyms>  (209) 
O-diphospho-L-serine residue

>  <PubMed citation Links>  (209) 
19934039
31668836
27789744

>  <PubChem Database Links>  (209) 
SID: 85349239

>  <Rhea Database Links>  (209) 
RHEA:64104

$$$$

     RDKit          2D

 16 15  0  0  1  0  0  0  0  0999 V2000
    1.7291    0.2852    0.0000 C   0  0  0  0  0  0  0  0  0  0  0  0
   -0.8646   -0.2139    0.0000 O   0  0  0  0  0  0  0  0  0  0  0  0
   -2.5938   -0.2139    0.0000 O   0  0  0  0  0  0  0  0  0  0  0  0
    0.0000    0.2852    0.0000 C   0  0  0  0  0  0  0  0  0  0  0  0
    0.8646   -0.2139    0.0000 C   0  0  0  0  0  0  0  0  0  0  0  0
   -1.7291    0.2852    0.0000 P   0  0  0  0  0  0  0  0  0  0  0  0
   -1.7291    1.2835    0.0000 O   0  0  0  0  0  0  0  0  0  0  0  0
    1.7291    1.2835    0.0000 O   0  0  0  0  0  0  0  0  0  0  0  0
   -1.7291   -0.7131    0.0000 O   0  0  0  0  0  0  0  0  0  0  0  0
    0.8646   -1.2123    0.0000 N   0  0  0  0  0  0  0  0  0  0  0  0
    2.5938   -0.2139    0.0000 O   0  0  0  0  0  0  0  0  0  0  0  0
   -3.4584    0.2852    0.0000 P   0  0  0  0  0  0  0  0  0  0  0  0
   -4.3230   -0.2139    0.0000 O   0  0  0  0  0  0  0  0  0  0  0  0
   -3.4584    1.2835    0.0000 O   0  0  0  0  0  0  0  0  0  0  0  0
   -3.4744   -0.7381    0.0000 O   0  0  0  0  0  0  0  0  0  0  0  0
    0.0000    1.2852    0.0000 C   0  0  0  0  0  0  0  0  0  0  0  0
  1 11  1  0
  1  8  2  0
  2  4  1  0
  5  1  1  0
  4  5  1  0
  5 10  1  1
  6  2  1  0
  6  3  1  0
  6  7  2  0
  6  9  1  0
  3 12  1  0
 12 13  1  0
 12 14  2  0
 12 15  1  0
  4 16  1  6
V   11 *
M  END
>  <ChEBI ID>  (210) 
CHEBI:149684

>  <ChEBI Name>  (210) 
O-diphosphonato-L-threonine(3-) residue

>  <Star>  (210) 
2

>  <SMILES>  (210) 
C(*)(=O)[C@H]([C@H](OP(OP([O-])(=O)[O-])(=O)[O-])C)N*

>  <Formulae>  (210) 
C4H6NO8P2

>  <Charge>  (210) 
-3

>  <Mass>  (210) 
258.040

>  <Monoisotopic Mass>  (210) 
257.95686

>  <Synonyms>  (210) 
O-diphospho-L-threonine residue

>  <PubMed citation Links>  (210) 
28218834
28723107

>  <PubChem Database Links>  (210) 
SID: 85349241

$$$$

     RDKit          2D

 16 16  0  0  1  0  0  0  0  0999 V2000
   14.2028   -5.6076    0.0000 C   0  0  0  0  0  0  0  0  0  0  0  0
   14.2028   -4.6077    0.0000 O   0  0  0  0  0  0  0  0  0  0  0  0
   13.3368   -6.1077    0.0000 C   0  0  0  0  0  0  0  0  0  0  0  0
   12.4708   -5.6076    0.0000 C   0  0  0  0  0  0  0  0  0  0  0  0
   13.3368   -7.1077    0.0000 N   0  0  0  0  0  0  0  0  0  0  0  0
   11.6048   -6.1077    0.0000 C   0  0  0  0  0  0  0  0  0  0  0  0
   11.6048   -7.1077    0.0000 C   0  0  0  0  0  0  0  0  0  0  0  0
   10.7387   -5.6076    0.0000 C   0  0  0  0  0  0  0  0  0  0  0  0
    9.8728   -6.1077    0.0000 C   0  0  0  0  0  0  0  0  0  0  0  0
    9.8728   -7.1077    0.0000 C   0  0  0  0  0  0  0  0  0  0  0  0
   10.7387   -7.6076    0.0000 C   0  0  0  0  0  0  0  0  0  0  0  0
    9.0067   -7.6076    0.0000 O   0  0  0  0  0  0  0  0  0  0  0  0
   15.0688   -6.1077    0.0000 O   0  0  0  0  0  0  0  0  0  0  0  0
    8.1406   -6.1077    0.0000 O   0  0  0  0  0  0  0  0  0  0  0  0
    9.0067   -4.6077    0.0000 O   0  0  0  0  0  0  0  0  0  0  0  0
    9.0067   -5.6076    0.0000 N   0  0  0  0  0  0  0  0  0  0  0  0
  1  2  2  0
  1  3  1  0
  3  4  1  0
  3  5  1  1
  4  6  1  0
  6  7  2  0
  6  8  1  0
  7 11  1  0
  8  9  2  0
  9 10  1  0
 10 11  2  0
 10 12  1  0
 13  1  1  0
  9 16  1  0
 14 16  1  0
 16 15  2  0
V   13 *
M  END
>  <ChEBI ID>  (211) 
CHEBI:149694

>  <ChEBI Name>  (211) 
3-nitro-L-tyrosine(1-) residue

>  <Star>  (211) 
3

>  <Definition>  (211) 
An alpha-amino-acid residue anion resulting from the deprotonation of the 4-hydroxy group of 3-nitro-L-tyrosine residue. Major species at pH 7.3.

>  <SMILES>  (211) 
C(=O)([C@H](CC=1C=CC(=C(C1)[N+]([O-])=O)[O-])N*)*

>  <Formulae>  (211) 
C9H7N2O4

>  <Charge>  (211) 
-1

>  <Mass>  (211) 
207.163

>  <Monoisotopic Mass>  (211) 
207.04058

>  <Synonyms>  (211) 
3-nitro-L-tyrosine residue
3-nitrotyrosine(1-) residue
L-3-nitrotyrosine(1-) residue
m-nitrotyrosine(1-) residue
meta-nitro-L-tyrosine(1-) residue
meta-nitrotyrosine(1-) residue

>  <PubMed citation Links>  (211) 
29154193
28187345
28302048
29473494
23157446
27324931

>  <RESID Database Links>  (211) 
AA0537

>  <PubChem Database Links>  (211) 
SID: 85349251

>  <Last Modified>  (211) 
22 Jun 2020

$$$$

     RDKit          2D

 30 30  0  0  1  0  0  0  0  0999 V2000
   10.4619  -15.3435    0.0000 N   0  0  0  0  0  0  0  0  0  0  0  0
    9.4993  -15.6059    0.0000 C   0  0  0  0  0  0  0  0  0  0  0  0
    9.2454  -16.5706    0.0000 C   0  0  0  0  0  0  0  0  0  0  0  0
    8.2901  -16.8581    0.0000 C   0  0  0  0  0  0  0  0  0  0  0  0
    8.0360  -17.8229    0.0000 C   0  0  0  0  0  0  0  0  0  0  0  0
    7.0808  -18.1104    0.0000 C   0  0  0  0  0  0  0  0  0  0  0  0
    6.8269  -19.0751    0.0000 C   0  0  0  0  0  0  0  0  0  0  0  0
    5.8715  -19.3627    0.0000 C   0  0  0  0  0  0  0  0  0  0  0  0
    5.6176  -20.3274    0.0000 C   0  0  0  0  0  0  0  0  0  0  0  0
    4.6623  -20.6147    0.0000 C   0  0  0  0  0  0  0  0  0  0  0  0
    7.5638  -16.1568    0.0000 C   0  0  0  0  0  0  0  0  0  0  0  0
    5.1452  -18.6613    0.0000 C   0  0  0  0  0  0  0  0  0  0  0  0
    4.4082  -21.5797    0.0000 C   0  0  0  0  0  0  0  0  0  0  0  0
    3.4280  -21.8428    0.0000 C   0  0  0  0  0  0  0  0  0  0  0  0
    3.2240  -22.8560    0.0000 C   0  0  0  0  0  0  0  0  0  0  0  0
    3.9494  -23.5081    0.0000 C   0  0  0  0  0  0  0  0  0  0  0  0
    4.9056  -23.2697    0.0000 C   0  0  0  0  0  0  0  0  0  0  0  0
    5.1344  -22.2810    0.0000 C   0  0  0  0  0  0  0  0  0  0  0  0
    6.0898  -21.9933    0.0000 C   0  0  0  0  0  0  0  0  0  0  0  0
    2.4598  -21.6014    0.0000 C   0  0  0  0  0  0  0  0  0  0  0  0
    3.1529  -20.8838    0.0000 C   0  0  0  0  0  0  0  0  0  0  0  0
   13.8811  -15.4025    0.0000 C   0  0  0  0  0  0  0  0  0  0  0  0
   13.0171  -15.9014    0.0000 C   0  0  0  0  0  0  0  0  0  0  0  0
   12.1530  -15.4025    0.0000 C   0  0  0  0  0  0  0  0  0  0  0  0
   11.2889  -15.9014    0.0000 C   0  0  0  0  0  0  0  0  0  0  0  0
   15.6092  -15.4024    0.0000 C   0  0  0  0  0  0  0  0  0  0  0  0
   15.6092  -14.4047    0.0000 O   0  0  0  0  0  0  0  0  0  0  0  0
   14.7451  -15.9014    0.0000 C   0  0  0  0  0  0  0  0  0  0  0  0
   14.7451  -16.8991    0.0000 N   0  0  0  0  0  0  0  0  0  0  0  0
   16.4733  -15.9013    0.0000 O   0  0  0  0  0  0  0  0  0  0  0  0
  3  2  1  0
  4  3  2  0
  5  4  1  0
 11  4  1  0
  6  5  2  0
  7  6  1  0
  8  7  2  0
  9  8  1  0
 12  8  1  0
 10  9  2  0
 13 10  1  0
 18 13  2  0
 15 14  1  0
 16 15  1  0
 17 16  1  0
 18 17  1  0
 19 18  1  0
  2  1  2  0
 14 13  1  0
 14 20  1  0
 14 21  1  0
 30 26  1  0
 28 26  1  0
 28 22  1  0
 23 22  1  0
 24 23  1  0
 25 24  1  0
 26 27  2  0
 28 29  1  1
  1 25  1  0
V   30 *
M  END
>  <ChEBI ID>  (212) 
CHEBI:149695

>  <ChEBI Name>  (212) 
N(6)-all-trans-retinylidene-L-lysinium residue

>  <Star>  (212) 
2

>  <SMILES>  (212) 
[NH+](=C/C=C(/C=C/C=C(/C=C/C1=C(CCCC1(C)C)C)\C)\C)/CCCC[C@@H](C(*)=O)N*

>  <Formulae>  (212) 
C26H39N2O

>  <Charge>  (212) 
+1

>  <Mass>  (212) 
395.602

>  <Monoisotopic Mass>  (212) 
395.30624

>  <Synonyms>  (212) 
N(6)-all-trans-retinylidene-L-lysine residue

>  <PubMed citation Links>  (212) 
17117890
6794028

>  <RESID Database Links>  (212) 
AA0120

>  <PubChem Database Links>  (212) 
SID: 85349252

$$$$

     RDKit          2D

 27 28  0  0  0  0  0  0  0  0999 V2000
   -0.8643   -0.4990    0.0000 C   0  0  0  0  0  0  0  0  0  0  0  0
   -0.8643    0.4990    0.0000 C   0  0  0  0  0  0  0  0  0  0  0  0
    0.0000   -0.9979    0.0000 N   0  0  0  0  0  0  0  0  0  0  0  0
    0.8643   -0.4990    0.0000 C   0  0  0  0  0  0  0  0  0  0  0  0
    0.8643    0.4990    0.0000 N   0  0  0  0  0  0  0  0  0  0  0  0
    0.0000    0.9979    0.0000 C   0  0  0  0  0  0  0  0  0  0  0  0
    0.0000   -1.9958    0.0000 C   0  0  0  0  0  0  0  0  0  0  0  0
   -0.8073   -2.5824    0.0000 O   0  0  0  0  0  0  0  0  0  0  0  0
   -0.4990   -3.5314    0.0000 C   0  0  0  0  0  0  0  0  0  0  0  0
    0.4990   -3.5314    0.0000 C   0  0  0  0  0  0  0  0  0  0  0  0
    1.7285   -0.9979    0.0000 O   0  0  0  0  0  0  0  0  0  0  0  0
    1.0855   -4.3387    0.0000 O   0  0  0  0  0  0  0  0  0  0  0  0
   -3.7778   -4.0805    0.0000 O   0  0  0  0  0  0  0  0  0  0  0  0
   -2.9137   -5.5773    0.0000 O   0  0  0  0  0  0  0  0  0  0  0  0
   -2.9137   -3.5815    0.0000 O   0  0  0  0  0  0  0  0  0  0  0  0
   -2.9137   -4.5794    0.0000 P   0  0  0  0  0  0  0  0  0  0  0  0
   -2.0494   -4.0805    0.0000 O   0  0  0  0  0  0  0  0  0  0  0  0
   -1.0855   -4.3387    0.0000 C   0  0  0  0  0  0  0  0  0  0  0  0
    0.0000    1.9958    0.0000 O   0  0  0  0  0  0  0  0  0  0  0  0
    0.8074   -2.5824    0.0000 C   0  0  0  0  0  0  0  0  0  0  0  0
    1.7713   -2.3241    0.0000 O   0  0  0  0  0  0  0  0  0  0  0  0
   -5.2882   -1.4453    0.0000 O   0  0  0  0  0  0  0  0  0  0  0  0
   -3.7192   -2.3224    0.0000 O   0  0  0  0  0  0  0  0  0  0  0  0
   -4.7756   -4.0555    0.0000 C   0  0  0  0  0  0  0  0  0  0  0  0
   -5.2528   -3.1791    0.0000 C   0  0  0  0  0  0  0  0  0  0  0  0
   -6.2505   -3.1542    0.0000 N   0  0  0  0  0  0  0  0  0  0  0  0
   -4.7324   -2.3276    0.0000 C   0  0  0  0  0  0  0  0  0  0  0  0
  1  2  2  0
  3  1  1  0
  7  3  1  1
  3  4  1  0
  4 11  2  0
  4  5  1  0
  2  6  1  0
  5  6  1  0
  6 19  2  0
  7  8  1  0
 20  7  1  0
  9  8  1  0
 10 20  1  0
  9 18  1  1
 10  9  1  0
 10 12  1  6
 13 16  1  0
 16 14  2  0
 16 15  1  0
 16 17  1  0
 18 17  1  0
 20 21  1  6
 13 24  1  0
 25 24  1  0
 25 26  1  6
 25 27  1  0
 27 22  2  0
 27 23  1  0
V   23 *
M  END
>  <ChEBI ID>  (213) 
CHEBI:156051

>  <ChEBI Name>  (213) 
uridylyl-L-serine(1-) residue

>  <Star>  (213) 
2

>  <Definition>  (213) 
An alpha-amino-acid residue anion obtained by deprotonation of the phosphate OH group of uridylyl-L-serine residue; major species at pH 7.3.

>  <SMILES>  (213) 
C1=CC(NC(N1[C@@H]2O[C@H](COP(OC[C@H](N*)C(=O)*)(=O)[O-])[C@H]([C@H]2O)O)=O)=O

>  <Formulae>  (213) 
C12H15N3O10P

>  <Charge>  (213) 
-1

>  <Mass>  (213) 
392.236

>  <Monoisotopic Mass>  (213) 
392.04951

>  <Synonyms>  (213) 
uridylyl-L-serine residue

>  <PubMed citation Links>  (213) 
22504181

>  <PubChem Database Links>  (213) 
SID: 85355521

>  <Rhea Database Links>  (213) 
RHEA:64604

$$$$

     RDKit          2D

 28 29  0  0  0  0  0  0  0  0999 V2000
   -0.8643   -0.4990    0.0000 C   0  0  0  0  0  0  0  0  0  0  0  0
   -0.8643    0.4990    0.0000 C   0  0  0  0  0  0  0  0  0  0  0  0
    0.0000   -0.9980    0.0000 N   0  0  0  0  0  0  0  0  0  0  0  0
    0.8643   -0.4990    0.0000 C   0  0  0  0  0  0  0  0  0  0  0  0
    0.8643    0.4990    0.0000 N   0  0  0  0  0  0  0  0  0  0  0  0
    0.0000    0.9980    0.0000 C   0  0  0  0  0  0  0  0  0  0  0  0
    0.0000   -1.9960    0.0000 C   0  0  0  0  0  0  0  0  0  0  0  0
   -0.8073   -2.5826    0.0000 O   0  0  0  0  0  0  0  0  0  0  0  0
   -0.4990   -3.5317    0.0000 C   0  0  0  0  0  0  0  0  0  0  0  0
    0.4990   -3.5317    0.0000 C   0  0  0  0  0  0  0  0  0  0  0  0
    1.7286   -0.9980    0.0000 O   0  0  0  0  0  0  0  0  0  0  0  0
    1.0856   -4.3390    0.0000 O   0  0  0  0  0  0  0  0  0  0  0  0
   -3.7781   -4.0807    0.0000 O   0  0  0  0  0  0  0  0  0  0  0  0
   -2.9139   -5.5777    0.0000 O   0  0  0  0  0  0  0  0  0  0  0  0
   -2.9139   -3.5817    0.0000 O   0  0  0  0  0  0  0  0  0  0  0  0
   -2.9139   -4.5797    0.0000 P   0  0  0  0  0  0  0  0  0  0  0  0
   -2.0496   -4.0807    0.0000 O   0  0  0  0  0  0  0  0  0  0  0  0
   -1.0856   -4.3390    0.0000 C   0  0  0  0  0  0  0  0  0  0  0  0
    0.0000    1.9960    0.0000 O   0  0  0  0  0  0  0  0  0  0  0  0
    0.8075   -2.5826    0.0000 C   0  0  0  0  0  0  0  0  0  0  0  0
    1.7715   -2.3243    0.0000 O   0  0  0  0  0  0  0  0  0  0  0  0
   -5.2886   -1.4454    0.0000 O   0  0  0  0  0  0  0  0  0  0  0  0
   -3.7194   -2.3226    0.0000 O   0  0  0  0  0  0  0  0  0  0  0  0
   -4.7759   -4.0558    0.0000 C   0  0  0  0  0  0  0  0  0  0  0  0
   -5.2532   -3.1793    0.0000 C   0  0  0  0  0  0  0  0  0  0  0  0
   -6.2509   -3.1544    0.0000 N   0  0  0  0  0  0  0  0  0  0  0  0
   -4.7328   -2.3278    0.0000 C   0  0  0  0  0  0  0  0  0  0  0  0
   -5.2965   -4.9073    0.0000 C   0  0  0  0  0  0  0  0  0  0  0  0
  1  2  2  0
  3  1  1  0
  7  3  1  1
  3  4  1  0
  4 11  2  0
  4  5  1  0
  2  6  1  0
  5  6  1  0
  6 19  2  0
  7  8  1  0
 20  7  1  0
  9  8  1  0
 10 20  1  0
  9 18  1  1
 10  9  1  0
 10 12  1  6
 13 16  1  0
 16 14  2  0
 16 15  1  0
 16 17  1  0
 18 17  1  0
 20 21  1  6
 13 24  1  0
 24 25  1  0
 25 26  1  6
 25 27  1  0
 27 22  2  0
 27 23  1  0
 24 28  1  6
V   23 *
M  END
>  <ChEBI ID>  (214) 
CHEBI:156052

>  <ChEBI Name>  (214) 
uridylyl-L-threonine(1-) residue

>  <Star>  (214) 
2

>  <Definition>  (214) 
An alpha-amino-acid residue anion obtained by deprotonation of the phosphate OH group of uridylyl-L-threonine residue; major species at pH 7.3.

>  <SMILES>  (214) 
C1=CC(NC(N1[C@@H]2O[C@H](COP(O[C@@H]([C@H](N*)C(=O)*)C)(=O)[O-])[C@H]([C@H]2O)O)=O)=O

>  <Formulae>  (214) 
C13H17N3O10P

>  <Charge>  (214) 
-1

>  <Mass>  (214) 
406.262

>  <Monoisotopic Mass>  (214) 
406.06516

>  <Synonyms>  (214) 
uridylyl-L-threonine residue

>  <PubMed citation Links>  (214) 
22504181

>  <PubChem Database Links>  (214) 
SID: 85355522

>  <Rhea Database Links>  (214) 
RHEA:64608

$$$$

     RDKit          2D

 20 19  0  0  0  0  0  0  0  0999 V2000
    0.4330    0.2499    0.0000 C   0  0  0  0  0  0  0  0  0  0  0  0
   -0.4330   -0.2501    0.0000 C   0  0  0  0  0  0  0  0  0  0  0  0
   -1.2990    0.2499    0.0000 C   0  0  0  0  0  0  0  0  0  0  0  0
   -2.1651   -0.2501    0.0000 C   0  0  0  0  0  0  0  0  0  0  0  0
   -3.0310    0.2499    0.0000 N   0  0  0  0  0  0  0  0  0  0  0  0
    2.1651    0.2501    0.0000 C   0  0  0  0  0  0  0  0  0  0  0  0
    2.1651    1.2501    0.0000 O   0  0  0  0  0  0  0  0  0  0  0  0
    1.2990   -0.2501    0.0000 C   0  0  0  0  0  0  0  0  0  0  0  0
    1.2990   -1.2501    0.0000 N   0  0  0  0  0  0  0  0  0  0  0  0
    3.0311   -0.2499    0.0000 O   0  0  0  0  0  0  0  0  0  0  0  0
   -3.8971   -0.2501    0.0000 C   0  0  0  0  0  0  0  0  0  0  0  0
   -4.7630    0.2501    0.0000 C   0  0  0  0  0  0  0  0  0  0  0  0
   -3.8971   -1.2501    0.0000 O   0  0  0  0  0  0  0  0  0  0  0  0
   -5.6291   -0.2499    0.0000 C   0  0  0  0  0  0  0  0  0  0  0  0
   -6.4951    0.2501    0.0000 C   0  0  0  0  0  0  0  0  0  0  0  0
   -7.3612   -0.2498    0.0000 C   0  0  0  0  0  0  0  0  0  0  0  0
   -8.2271    0.2502    0.0000 C   0  0  0  0  0  0  0  0  0  0  0  0
   -9.0932   -0.2498    0.0000 N   0  0  0  0  0  0  0  0  0  0  0  0
   -5.6292   -1.2499    0.0000 N   0  0  0  0  0  0  0  0  0  0  0  0
   -1.2990    1.2499    0.0000 O   0  0  0  0  0  0  0  0  0  0  0  0
 10  6  1  0
  8  6  1  0
  8  1  1  0
  2  1  1  0
  3  2  1  0
  4  3  1  0
  5  4  1  0
  6  7  2  0
  8  9  1  1
  5 11  1  0
 11 12  1  0
 11 13  2  0
 12 14  1  0
 14 15  1  0
 15 16  1  0
 16 17  1  0
 17 18  1  0
 14 19  1  6
  3 20  1  0
V   10 *
M  END
>  <ChEBI ID>  (215) 
CHEBI:156054

>  <ChEBI Name>  (215) 
N(6)-((3R)-3,6-diaminohexanoyl)-5-hydroxy-L-lysine(2+) residue

>  <Star>  (215) 
2

>  <SMILES>  (215) 
C([C@@H](C(*)=O)N*)CC(CNC(C[C@@H](CCC[NH3+])[NH3+])=O)O

>  <Formulae>  (215) 
C12H26N4O3

>  <Charge>  (215) 
+2

>  <Mass>  (215) 
274.360

>  <Monoisotopic Mass>  (215) 
274.20049

>  <Synonyms>  (215) 
N(6)-((3R)-3,6-diaminohexanoyl)-5-hydroxy-L-lysine residue

>  <PubMed citation Links>  (215) 
22706199

>  <PubChem Database Links>  (215) 
SID: 85355524

$$$$

     RDKit          2D

 15 14  0  0  1  0  0  0  0  0999 V2000
   11.1399   -6.2710    0.0000 C   0  0  0  0  0  0  0  0  0  0  0  0
   12.0093   -6.7764    0.0000 O   0  0  0  0  0  0  0  0  0  0  0  0
   10.2706   -6.7764    0.0000 C   0  0  0  0  0  0  0  0  0  0  0  0
   11.1399   -5.2804    0.0000 O   0  0  0  0  0  0  0  0  0  0  0  0
   10.2911   -7.7669    0.0000 N   0  0  0  0  0  0  0  0  0  0  0  0
    5.9446   -6.2710    0.0000 N   0  0  0  0  0  0  0  0  0  0  0  0
    6.8140   -6.7562    0.0000 C   0  0  0  0  0  0  0  0  0  0  0  0
    9.4217   -6.2710    0.0000 C   0  0  0  0  0  0  0  0  0  0  0  0
    7.6832   -6.2710    0.0000 C   0  0  0  0  0  0  0  0  0  0  0  0
    8.5525   -6.7764    0.0000 C   0  0  0  0  0  0  0  0  0  0  0  0
    5.0812   -6.7864    0.0000 C   0  0  0  0  0  0  0  0  0  0  0  0
    4.2032   -6.2964    0.0000 C   0  0  0  0  0  0  0  0  0  0  0  0
    5.0958   -7.7867    0.0000 C   0  0  0  0  0  0  0  0  0  0  0  0
    4.2368   -8.2995    0.0000 O   0  0  0  0  0  0  0  0  0  0  0  0
    5.9693   -8.2743    0.0000 O   0  0  0  0  0  0  0  0  0  0  0  0
  2  1  1  0
  3  1  1  0
  4  1  2  0
  3  5  1  1
  3  8  1  0
  7  6  1  0
  9  7  1  0
 10  8  1  0
 10  9  1  0
  6 11  1  0
 11 12  1  6
 11 13  1  0
 13 14  2  0
 13 15  1  0
V    2 *
M  END
>  <ChEBI ID>  (216) 
CHEBI:156063

>  <ChEBI Name>  (216) 
N(6)-((1S)-1-carboxyethyl)-L-lysine zwitterion residue

>  <Star>  (216) 
2

>  <SMILES>  (216) 
C(*)([C@@H](N*)CCCC[NH2+][C@@H](C)C(=O)[O-])=O

>  <Formulae>  (216) 
C9H16N2O3

>  <Charge>  (216) 
0

>  <Mass>  (216) 
200.235

>  <Monoisotopic Mass>  (216) 
200.11609

>  <Synonyms>  (216) 
N(6)-((1S)-1-carboxyethyl)-L-lysine residue

>  <RESID Database Links>  (216) 
AA0115

>  <PubChem Database Links>  (216) 
SID: 85355533

$$$$

     RDKit          2D

 12 11  0  0  1  0  0  0  0  0999 V2000
   11.1364   -6.2690    0.0000 C   0  0  0  0  0  0  0  0  0  0  0  0
   12.0055   -6.7742    0.0000 O   0  0  0  0  0  0  0  0  0  0  0  0
   10.2674   -6.7742    0.0000 C   0  0  0  0  0  0  0  0  0  0  0  0
   11.1364   -5.2787    0.0000 O   0  0  0  0  0  0  0  0  0  0  0  0
   10.2879   -7.7644    0.0000 N   0  0  0  0  0  0  0  0  0  0  0  0
    5.9426   -6.2690    0.0000 N   0  0  0  0  0  0  0  0  0  0  0  0
    6.8117   -6.7540    0.0000 C   0  0  0  0  0  0  0  0  0  0  0  0
    9.4188   -6.2690    0.0000 C   0  0  0  0  0  0  0  0  0  0  0  0
    7.6807   -6.2690    0.0000 C   0  0  0  0  0  0  0  0  0  0  0  0
    8.5497   -6.7742    0.0000 C   0  0  0  0  0  0  0  0  0  0  0  0
    5.0795   -6.7842    0.0000 C   0  0  0  0  0  0  0  0  0  0  0  0
    5.0940   -7.7891    0.0000 O   0  0  0  0  0  0  0  0  0  0  0  0
  2  1  1  0
  3  1  1  0
  4  1  2  0
  3  5  1  1
  3  8  1  0
  7  6  1  0
  9  7  1  0
 10  8  1  0
 10  9  1  0
  6 11  1  0
 11 12  2  0
V    2 *
M  END
>  <ChEBI ID>  (217) 
CHEBI:156064

>  <ChEBI Name>  (217) 
N(6)-formyl-L-lysine residue

>  <Star>  (217) 
3

>  <Definition>  (217) 
An L-alpha-amino acid residue derived from any N(6)-formyl-L-lysine.

>  <SMILES>  (217) 
C(*)([C@@H](N*)CCCCNC([H])=O)=O

>  <Formulae>  (217) 
C7H12N2O2

>  <Charge>  (217) 
0

>  <Mass>  (217) 
156.183

>  <Monoisotopic Mass>  (217) 
156.08988

>  <Synonyms>  (217) 
N(6)-formyl-L-lysine residue
epsilon-formyl-L-lysine residue

>  <PubMed citation Links>  (217) 
17190813
18056081

>  <RESID Database Links>  (217) 
AA0211

>  <PubChem Database Links>  (217) 
SID: 85355534

>  <Last Modified>  (217) 
10 Jul 2020

$$$$

     RDKit          2D

 11 10  0  0  1  0  0  0  0  0999 V2000
   15.1390   -8.9661    0.0000 C   0  0  0  0  0  0  0  0  0  0  0  0
   16.0050   -9.4661    0.0000 O   0  0  0  0  0  0  0  0  0  0  0  0
   14.2729   -9.4661    0.0000 C   0  0  0  0  0  0  0  0  0  0  0  0
   15.1390   -7.9661    0.0000 O   0  0  0  0  0  0  0  0  0  0  0  0
   14.2729  -10.4661    0.0000 N   0  0  0  0  0  0  0  0  0  0  0  0
   13.4069   -8.9661    0.0000 C   0  0  0  0  0  0  0  0  0  0  0  0
   12.5408   -9.4661    0.0000 C   0  0  0  0  0  0  0  0  0  0  0  0
   11.6748   -8.9661    0.0000 S   0  0  0  0  0  0  0  0  0  0  0  0
   10.8088   -9.4661    0.0000 C   0  0  0  0  0  0  0  0  0  0  0  0
   11.1748   -8.1001    0.0000 O   0  0  0  0  0  0  0  0  0  0  0  0
   12.1748   -8.1001    0.0000 O   0  0  0  0  0  0  0  0  0  0  0  0
  2  1  1  0
  3  1  1  0
  4  1  2  0
  3  5  1  1
  3  6  1  0
  6  7  1  0
  7  8  1  0
  8  9  1  0
  8 10  2  0
  8 11  2  0
V    2 *
M  END
>  <ChEBI ID>  (218) 
CHEBI:156065

>  <ChEBI Name>  (218) 
L-methionine sulfone residue

>  <Star>  (218) 
3

>  <Definition>  (218) 
An L-alpha-amino acid residue derived from L-methionine sulfone.

>  <SMILES>  (218) 
C(*)([C@@H](N*)CCS(C)(=O)=O)=O

>  <Formulae>  (218) 
C5H9NO3S

>  <Charge>  (218) 
0

>  <Mass>  (218) 
163.196

>  <Monoisotopic Mass>  (218) 
163.03031

>  <Synonyms>  (218) 
L-methionine sulfone residue
S-dioxymethionine residue

>  <PubMed citation Links>  (218) 
7791219
7786407

>  <RESID Database Links>  (218) 
AA0251

>  <PubChem Database Links>  (218) 
SID: 85355535

>  <Last Modified>  (218) 
13 Jul 2020

$$$$

     RDKit          2D

 22 21  0  0  1  0  0  0  0  0999 V2000
    4.5000    2.5981    0.0000 C   0  0  0  0  0  0  0  0  0  0  0  0
    5.3661    3.0981    0.0000 C   0  0  0  0  0  0  0  0  0  0  0  0
    6.2320    2.5981    0.0000 C   0  0  0  0  0  0  0  0  0  0  0  0
    7.0981    3.0981    0.0000 C   0  0  0  0  0  0  0  0  0  0  0  0
    7.9641    2.5981    0.0000 C   0  0  0  0  0  0  0  0  0  0  0  0
    4.5000    1.5981    0.0000 O   0  0  0  0  0  0  0  0  0  0  0  0
    7.9641    1.5981    0.0000 O   0  0  0  0  0  0  0  0  0  0  0  0
    8.8302    3.0981    0.0000 N   0  0  0  0  0  0  0  0  0  0  0  0
    9.6961    2.5981    0.0000 C   0  0  0  0  0  0  0  0  0  0  0  0
   10.5622    3.0981    0.0000 C   0  0  0  0  0  0  0  0  0  0  0  0
   11.4282    2.5981    0.0000 O   0  0  0  0  0  0  0  0  0  0  0  0
   12.2942    3.0981    0.0000 P   0  0  0  0  0  0  0  0  0  0  0  0
   12.7942    2.2320    0.0000 O   0  0  0  0  0  0  0  0  0  0  0  0
   11.7942    3.9641    0.0000 O   0  0  0  0  0  0  0  0  0  0  0  0
   13.1602    3.5981    0.0000 O   0  0  0  0  0  0  0  0  0  0  0  0
   14.0263    3.0981    0.0000 C   0  0  0  0  0  0  0  0  0  0  0  0
   14.8923    3.5981    0.0000 C   0  0  0  0  0  0  0  0  0  0  0  0
   15.7583    3.0981    0.0000 C   0  0  0  0  0  0  0  0  0  0  0  0
   14.8923    4.5981    0.0000 O   0  0  0  0  0  0  0  0  0  0  0  0
   16.6243    3.5981    0.0000 O   0  0  0  0  0  0  0  0  0  0  0  0
    5.3661    4.0981    0.0000 N   0  0  0  0  0  0  0  0  0  0  0  0
    3.6339    3.0981    0.0000 O   0  0  0  0  0  0  0  0  0  0  0  0
  2  1  1  0
  2  3  1  0
  3  4  1  0
  4  5  1  0
  6  1  2  0
  5  7  2  0
  9 10  1  0
 12 13  2  0
 12 14  1  0
 16 17  1  0
 17 18  1  0
 17 19  1  0
 18 20  1  0
 15 16  1  0
 12 15  1  0
 11 12  1  0
 10 11  1  0
  8  9  1  0
  5  8  1  0
  2 21  1  1
  1 22  1  0
V   22 *
M  END
>  <ChEBI ID>  (219) 
CHEBI:156066

>  <ChEBI Name>  (219) 
5-L-glutamyl-glycerophosphoethanolamine(1-) residue

>  <Star>  (219) 
2

>  <SMILES>  (219) 
C([C@H](CCC(=O)NCCOP(=O)([O-])OCC(CO)O)N*)(=O)*

>  <Formulae>  (219) 
C10H18N2O8P

>  <Charge>  (219) 
-1

>  <Mass>  (219) 
325.233

>  <Monoisotopic Mass>  (219) 
325.08008

>  <Synonyms>  (219) 
5-L-glutamyl-glycerophosphoethanolamine residue
5-L-glutamyl-glycerylphosphorylethanolamine residue

>  <RESID Database Links>  (219) 
AA0170

>  <PubChem Database Links>  (219) 
SID: 85355536

$$$$

     RDKit          2D

 13 12  0  0  1  0  0  0  0  0999 V2000
    2.4537    1.1667    0.0000 O   0  0  0  0  0  0  0  0  0  0  0  0
    2.4537    0.1667    0.0000 C   0  0  0  0  0  0  0  0  0  0  0  0
    3.3197   -0.3333    0.0000 O   0  0  0  0  0  0  0  0  0  0  0  0
    1.5877   -0.3333    0.0000 C   0  0  0  0  0  0  0  0  0  0  0  0
    0.7217    0.1667    0.0000 C   0  0  0  0  0  0  0  0  0  0  0  0
   -0.1444   -0.3333    0.0000 C   0  0  0  0  0  0  0  0  0  0  0  0
   -1.0103    0.1667    0.0000 C   0  0  0  0  0  0  0  0  0  0  0  0
   -1.8764   -0.3333    0.0000 N   0  0  0  0  0  0  0  0  0  0  0  0
   -2.7424    0.1667    0.0000 C   0  0  0  0  0  0  0  0  0  0  0  0
   -2.7424    1.1667    0.0000 N   0  0  0  0  0  0  0  0  0  0  0  0
   -3.6085   -0.3333    0.0000 N   0  0  0  0  0  0  0  0  0  0  0  0
    1.5877   -1.3333    0.0000 N   0  0  0  0  0  0  0  0  0  0  0  0
   -1.0103    1.1667    0.0000 C   0  0  0  0  0  0  0  0  0  0  0  0
  2  1  2  0
  3  2  1  0
  4  2  1  0
  4 12  1  6
  4  5  1  0
  6  5  1  0
  8  7  1  0
  6  7  1  0
  9  8  1  0
 10  9  2  0
 11  9  1  0
  7 13  1  1
V    3 *
M  END
>  <ChEBI ID>  (220) 
CHEBI:166868

>  <ChEBI Name>  (220) 
(5S)-C-methyl-L-argininium residue

>  <Star>  (220) 
2

>  <SMILES>  (220) 
O=C(*)[C@H](N*)CC[C@@H](NC(=[NH2+])N)C

>  <Formulae>  (220) 
C7H15N4O

>  <Charge>  (220) 
+1

>  <Mass>  (220) 
171.220

>  <Monoisotopic Mass>  (220) 
171.12459

>  <Synonyms>  (220) 
(5S)-C-methyl-L-arginine residue

>  <MetaCyc Database Links>  (220) 
Methyl-Coenzyme-M-Reductase-C5m-Arg

>  <PubMed citation Links>  (220) 
31113866

>  <PubChem Database Links>  (220) 
SID: 85366104

>  <Rhea Database Links>  (220) 
RHEA:66028

$$$$

     RDKit          2D

 79 88  0  0  1  0  0  0  0  0999 V2000
   26.9447  -16.2284    0.0000 O   0  0  0  0  0  0  0  0  0  0  0  0
   27.7935  -15.7292    0.0000 C   0  0  0  0  0  0  0  0  0  0  0  0
   28.6424  -16.2284    0.0000 C   0  0  0  0  0  0  0  0  0  0  0  0
   27.7935  -14.7304    0.0000 C   0  0  0  0  0  0  0  0  0  0  0  0
   29.5411  -15.7292    0.0000 C   0  0  0  0  0  0  0  0  0  0  0  0
   28.6424  -14.2310    0.0000 C   0  0  0  0  0  0  0  0  0  0  0  0
   29.5411  -14.7304    0.0000 C   0  0  0  0  0  0  0  0  0  0  0  0
   30.3899  -14.2810    0.0000 C   0  0  0  0  0  0  0  0  0  0  0  0
   31.2888  -14.7304    0.0000 C   0  0  0  0  0  0  0  0  0  0  0  0
   32.1376  -14.2810    0.0000 C   0  0  0  0  0  0  0  0  0  0  0  0
   31.2888  -15.7292    0.0000 N   0  0  0  0  0  0  0  0  0  0  0  0
   32.9865  -14.7304    0.0000 O   0  0  0  0  0  0  0  0  0  0  0  0
   32.1376  -13.2823    0.0000 O   0  0  0  0  0  0  0  0  0  0  0  0
   25.9460  -16.2284    0.0000 P   0  0  0  0  0  0  0  0  0  0  0  0
   25.9460  -15.2297    0.0000 O   0  0  0  0  0  0  0  0  0  0  0  0
   24.9473  -16.2284    0.0000 O   0  0  0  0  0  0  0  0  0  0  0  0
   25.9460  -17.2271    0.0000 O   0  0  0  0  0  0  0  0  0  0  0  0
   24.0984  -15.7292    0.0000 C   0  0  0  0  0  0  0  0  0  0  0  0
   23.1996  -16.2284    0.0000 C   0  0  0  0  0  0  0  0  0  0  0  0
   22.9001  -17.1771    0.0000 C   0  0  0  0  0  0  0  0  0  0  0  0
   21.9013  -17.1771    0.0000 C   0  0  0  0  0  0  0  0  0  0  0  0
   21.6017  -16.2284    0.0000 C   0  0  0  0  0  0  0  0  0  0  0  0
   22.4006  -15.6292    0.0000 O   0  0  0  0  0  0  0  0  0  0  0  0
   23.3994  -18.0260    0.0000 O   0  0  0  0  0  0  0  0  0  0  0  0
   21.4019  -18.0260    0.0000 O   0  0  0  0  0  0  0  0  0  0  0  0
   20.6530  -15.9786    0.0000 N   0  0  0  0  0  0  0  0  0  0  0  0
   19.9040  -16.6278    0.0000 C   0  0  0  0  0  0  0  0  0  0  0  0
   19.9040  -17.6265    0.0000 N   0  0  0  0  0  0  0  0  0  0  0  0
   19.0552  -18.1258    0.0000 C   0  0  0  0  0  0  0  0  0  0  0  0
   18.1563  -17.6265    0.0000 N   0  0  0  0  0  0  0  0  0  0  0  0
   18.1563  -16.6278    0.0000 C   0  0  0  0  0  0  0  0  0  0  0  0
   19.0552  -16.1285    0.0000 C   0  0  0  0  0  0  0  0  0  0  0  0
   19.2549  -15.1299    0.0000 N   0  0  0  0  0  0  0  0  0  0  0  0
   20.2537  -15.0300    0.0000 C   0  0  0  0  0  0  0  0  0  0  0  0
   17.3075  -16.1285    0.0000 N   0  0  0  0  0  0  0  0  0  0  0  0
   22.6747  -19.4371    0.0000 O   0  0  0  0  0  0  0  0  0  0  0  0
   21.9554  -18.9161    0.0000 C   0  0  0  0  0  0  0  0  0  0  0  0
   21.0566  -19.4154    0.0000 C   0  0  0  0  0  0  0  0  0  0  0  0
   20.7570  -20.3642    0.0000 C   0  0  0  0  0  0  0  0  0  0  0  0
   19.7584  -20.3642    0.0000 C   0  0  0  0  0  0  0  0  0  0  0  0
   19.4588  -19.4154    0.0000 C   0  0  0  0  0  0  0  0  0  0  0  0
   20.2578  -18.8163    0.0000 O   0  0  0  0  0  0  0  0  0  0  0  0
   21.2564  -21.2131    0.0000 O   0  0  0  0  0  0  0  0  0  0  0  0
   19.2591  -21.2131    0.0000 O   0  0  0  0  0  0  0  0  0  0  0  0
   18.5100  -19.1658    0.0000 N   0  0  0  0  0  0  0  0  0  0  0  0
   17.7610  -19.8150    0.0000 C   0  0  0  0  0  0  0  0  0  0  0  0
   17.7610  -20.8137    0.0000 N   0  0  0  0  0  0  0  0  0  0  0  0
   16.9123  -21.3129    0.0000 C   0  0  0  0  0  0  0  0  0  0  0  0
   16.0134  -20.8137    0.0000 N   0  0  0  0  0  0  0  0  0  0  0  0
   16.0134  -19.8150    0.0000 C   0  0  0  0  0  0  0  0  0  0  0  0
   16.9123  -19.3156    0.0000 C   0  0  0  0  0  0  0  0  0  0  0  0
   17.1120  -18.3170    0.0000 N   0  0  0  0  0  0  0  0  0  0  0  0
   18.1106  -18.2171    0.0000 C   0  0  0  0  0  0  0  0  0  0  0  0
   15.1645  -19.3156    0.0000 N   0  0  0  0  0  0  0  0  0  0  0  0
   23.5335  -19.1418    0.0000 P   0  0  0  0  0  0  0  0  0  0  0  0
   23.7880  -20.1613    0.0000 O   0  0  0  0  0  0  0  0  0  0  0  0
   24.4261  -18.8088    0.0000 O   0  0  0  0  0  0  0  0  0  0  0  0
   20.3379  -22.7186    0.0000 O   0  0  0  0  0  0  0  0  0  0  0  0
   19.4889  -22.2192    0.0000 C   0  0  0  0  0  0  0  0  0  0  0  0
   18.5902  -22.7186    0.0000 C   0  0  0  0  0  0  0  0  0  0  0  0
   18.2905  -23.6672    0.0000 C   0  0  0  0  0  0  0  0  0  0  0  0
   17.2918  -23.6672    0.0000 C   0  0  0  0  0  0  0  0  0  0  0  0
   16.9923  -22.7186    0.0000 C   0  0  0  0  0  0  0  0  0  0  0  0
   17.7913  -22.1193    0.0000 O   0  0  0  0  0  0  0  0  0  0  0  0
   18.7899  -24.5161    0.0000 O   0  0  0  0  0  0  0  0  0  0  0  0
   16.7925  -24.5161    0.0000 O   0  0  0  0  0  0  0  0  0  0  0  0
   16.0436  -22.4689    0.0000 N   0  0  0  0  0  0  0  0  0  0  0  0
   15.2946  -23.1181    0.0000 C   0  0  0  0  0  0  0  0  0  0  0  0
   15.2946  -24.1168    0.0000 N   0  0  0  0  0  0  0  0  0  0  0  0
   14.4457  -24.6161    0.0000 C   0  0  0  0  0  0  0  0  0  0  0  0
   13.5470  -24.1168    0.0000 N   0  0  0  0  0  0  0  0  0  0  0  0
   13.5470  -23.1181    0.0000 C   0  0  0  0  0  0  0  0  0  0  0  0
   14.4457  -22.6187    0.0000 C   0  0  0  0  0  0  0  0  0  0  0  0
   14.6455  -21.6201    0.0000 N   0  0  0  0  0  0  0  0  0  0  0  0
   15.6441  -21.5203    0.0000 C   0  0  0  0  0  0  0  0  0  0  0  0
   12.6980  -22.6187    0.0000 N   0  0  0  0  0  0  0  0  0  0  0  0
   21.2932  -22.2263    0.0000 P   0  0  0  0  0  0  0  0  0  0  0  0
   21.5165  -23.2472    0.0000 O   0  0  0  0  0  0  0  0  0  0  0  0
   22.2802  -21.8539    0.0000 O   0  0  0  0  0  0  0  0  0  0  0  0
  1  2  1  0
  2  3  2  0
  2  4  1  0
  3  5  1  0
  4  6  2  0
  5  7  2  0
  7  8  1  0
  9  8  1  0
  9 10  1  0
  9 11  1  1
 10 12  1  0
 10 13  2  0
  6  7  1  0
  1 14  1  0
 14 15  2  0
 14 16  1  0
 14 17  1  0
 16 18  1  0
 19 18  1  6
 20 21  1  0
 21 22  1  0
 22 23  1  0
 19 23  1  0
 20 19  1  0
 20 24  1  1
 21 25  1  1
 22 26  1  6
 27 28  2  0
 28 29  1  0
 29 30  2  0
 30 31  1  0
 31 32  2  0
 27 32  1  0
 32 33  1  0
 33 34  2  0
 34 26  1  0
 27 26  1  0
 31 35  1  0
 36 37  1  0
 38 37  1  6
 39 40  1  0
 40 41  1  0
 41 42  1  0
 38 42  1  0
 39 38  1  0
 39 43  1  1
 40 44  1  1
 41 45  1  6
 46 47  2  0
 47 48  1  0
 48 49  2  0
 49 50  1  0
 50 51  2  0
 46 51  1  0
 51 52  1  0
 52 53  2  0
 53 45  1  0
 46 45  1  0
 50 54  1  0
 36 55  1  0
 55 56  2  0
 55 57  1  0
 24 55  1  0
 58 59  1  0
 60 59  1  6
 61 62  1  0
 62 63  1  0
 63 64  1  0
 60 64  1  0
 61 60  1  0
 61 65  1  1
 62 66  1  1
 63 67  1  6
 68 69  2  0
 69 70  1  0
 70 71  2  0
 71 72  1  0
 72 73  2  0
 68 73  1  0
 73 74  1  0
 74 75  2  0
 75 67  1  0
 68 67  1  0
 72 76  1  0
 58 77  1  0
 43 77  1  0
 77 78  2  0
 77 79  1  0
V   12 *
M  END
>  <ChEBI ID>  (221) 
CHEBI:167161

>  <ChEBI Name>  (221) 
O-[5'-(adenyl-(5'->3')-adenyl-(5'->3')-adenyl)]-L-tyrosine(3-) residue

>  <Star>  (221) 
2

>  <Definition>  (221) 
An alpha-amino-acid residue anion obtained by the addition of 3 AMP residues connected by 3'->5' phosphodiester linkages on a L-tyrosine residue; major species at pH 7.3.

>  <SMILES>  (221) 
O(C1=CC=C(C[C@@H](C(*)=O)N*)C=C1)P(=O)(OC[C@H]2O[C@H]([C@@H]([C@@H]2OP(OC[C@H]3O[C@H]([C@@H]([C@@H]3OP(OC[C@H]4O[C@H]([C@@H]([C@@H]4O)O)N5C=NC6=C(N=CN=C65)N)(=O)[O-])O)N7C=NC8=C(N=CN=C87)N)(=O)[O-])O)N9C=NC%10=C(N=CN=C%109)N)[O-]

>  <Formulae>  (221) 
C39H42N16O20P3

>  <Charge>  (221) 
-3

>  <Mass>  (221) 
1147.769

>  <Monoisotopic Mass>  (221) 
1147.19741

>  <Synonyms>  (221) 
O-[5'-(adenyl-(5'->3')-adenyl-(5'->3')-adenyl)]-L-tyrosine residue

>  <PubMed citation Links>  (221) 
33045733
33290744

>  <PubChem Database Links>  (221) 
SID: 85366389

>  <Rhea Database Links>  (221) 
RHEA:66532

$$$$

     RDKit          2D

 22 23  0  0  1  0  0  0  0  0999 V2000
    1.6454    1.1499    0.0000 O   0  0  0  0  0  0  0  0  0  0  0  0
    1.6454    0.1499    0.0000 C   0  0  0  0  0  0  0  0  0  0  0  0
    2.5115   -0.3499    0.0000 O   0  0  0  0  0  0  0  0  0  0  0  0
    0.7794   -0.3501    0.0000 C   0  0  0  0  0  0  0  0  0  0  0  0
   -0.0865    0.1499    0.0000 C   0  0  0  0  0  0  0  0  0  0  0  0
   -0.9526   -0.3501    0.0000 C   0  0  0  0  0  0  0  0  0  0  0  0
   -1.8187    0.1501    0.0000 C   0  0  0  0  0  0  0  0  0  0  0  0
   -2.6847   -0.3499    0.0000 N   0  0  0  0  0  0  0  0  0  0  0  0
   -1.8187    1.1501    0.0000 O   0  0  0  0  0  0  0  0  0  0  0  0
    0.7794   -1.3501    0.0000 N   0  0  0  0  0  0  0  0  0  0  0  0
   -3.5508    0.1501    0.0000 C   0  0  0  0  0  0  0  0  0  0  0  0
   -4.4167   -0.3499    0.0000 C   0  0  0  0  0  0  0  0  0  0  0  0
   -5.2827    0.1501    0.0000 C   0  0  0  0  0  0  0  0  0  0  0  0
   -5.3872    1.1446    0.0000 C   0  0  0  0  0  0  0  0  0  0  0  0
   -6.3654    1.3525    0.0000 C   0  0  0  0  0  0  0  0  0  0  0  0
   -6.8654    0.4865    0.0000 N   0  0  0  0  0  0  0  0  0  0  0  0
   -6.1963   -0.2566    0.0000 C   0  0  0  0  0  0  0  0  0  0  0  0
   -6.6745    2.3036    0.0000 C   0  0  0  0  0  0  0  0  0  0  0  0
   -6.0053    3.0468    0.0000 C   0  0  0  0  0  0  0  0  0  0  0  0
   -5.0272    2.8389    0.0000 C   0  0  0  0  0  0  0  0  0  0  0  0
   -4.7181    1.8877    0.0000 C   0  0  0  0  0  0  0  0  0  0  0  0
   -4.3580    3.5819    0.0000 O   0  0  0  0  0  0  0  0  0  0  0  0
  2  1  2  0
  3  2  1  0
  4  2  1  0
  4 10  1  1
  4  5  1  0
  6  5  1  0
  9  7  2  0
  8  7  1  0
  6  7  1  0
  8 11  1  0
 11 12  1  0
 12 13  1  0
 15 16  1  0
 16 17  1  0
 13 14  1  0
 13 17  2  0
 18 19  1  0
 19 20  2  0
 20 21  1  0
 14 21  2  0
 15 18  2  0
 14 15  1  0
 20 22  1  0
V    3 *
M  END
>  <ChEBI ID>  (222) 
CHEBI:167174

>  <ChEBI Name>  (222) 
N-[2-(5-hydroxy-1H-indol-3-yl)ethyl]-L-glutamine residue

>  <Star>  (222) 
2

>  <Definition>  (222) 
An alpha-amino-acid residue formed from N-[2-(5-hydroxy-1H-indol-3-yl)ethyl]-L-glutamine.

>  <SMILES>  (222) 
O=C(*)[C@@H](N*)CCC(=O)NCCC=1C2=CC(=CC=C2NC1)O

>  <Formulae>  (222) 
C15H17N3O3

>  <Charge>  (222) 
0

>  <Mass>  (222) 
287.314

>  <Monoisotopic Mass>  (222) 
287.12699

>  <Synonyms>  (222) 
5-glutamyl serotonin residue
N-[2-(5-hydroxy-1H-indol-3-yl)ethyl]-L-glutamine residue

>  <PubMed citation Links>  (222) 
30867594

>  <PubChem Database Links>  (222) 
SID: 85366402

>  <Rhea Database Links>  (222) 
RHEA:66552

$$$$

     RDKit          2D

 20 20  0  0  1  0  0  0  0  0999 V2000
   -4.4619   -3.5600    0.0000 O   0  0  0  0  0  0  0  0  0  0  0  0
   -5.3449   -3.0905    0.0000 C   0  0  0  0  0  0  0  0  0  0  0  0
   -6.1928   -3.6204    0.0000 O   0  0  0  0  0  0  0  0  0  0  0  0
   -5.3797   -2.0910    0.0000 C   0  0  0  0  0  0  0  0  0  0  0  0
   -4.5317   -1.5612    0.0000 C   0  0  0  0  0  0  0  0  0  0  0  0
   -4.5666   -0.5618    0.0000 C   0  0  0  0  0  0  0  0  0  0  0  0
   -3.7185   -0.0319    0.0000 C   0  0  0  0  0  0  0  0  0  0  0  0
   -3.7533    0.9675    0.0000 N   0  0  0  0  0  0  0  0  0  0  0  0
   -2.8355   -0.5013    0.0000 O   0  0  0  0  0  0  0  0  0  0  0  0
   -6.2627   -1.6216    0.0000 N   0  0  0  0  0  0  0  0  0  0  0  0
   -2.9053    1.4974    0.0000 C   0  0  0  0  0  0  0  0  0  0  0  0
   -2.9402    2.4968    0.0000 C   0  0  0  0  0  0  0  0  0  0  0  0
   -2.0921    3.0266    0.0000 C   0  0  0  0  0  0  0  0  0  0  0  0
   -1.2262    4.5267    0.0000 C   0  0  0  0  0  0  0  0  0  0  0  0
   -2.0921    4.0266    0.0000 C   0  0  0  0  0  0  0  0  0  0  0  0
   -1.2262    2.5266    0.0000 C   0  0  0  0  0  0  0  0  0  0  0  0
   -0.3601    3.0266    0.0000 C   0  0  0  0  0  0  0  0  0  0  0  0
   -0.3601    4.0266    0.0000 C   0  0  0  0  0  0  0  0  0  0  0  0
    0.5059    4.5266    0.0000 O   0  0  0  0  0  0  0  0  0  0  0  0
   -1.2262    5.5267    0.0000 O   0  0  0  0  0  0  0  0  0  0  0  0
  2  1  2  0
  3  2  1  0
  4  2  1  0
  4 10  1  1
  4  5  1  0
  6  5  1  0
  9  7  2  0
  8  7  1  0
  6  7  1  0
  8 11  1  0
 11 12  1  0
 12 13  1  0
 14 15  1  0
 16 17  2  0
 17 18  1  0
 14 18  2  0
 15 13  2  0
 13 16  1  0
 18 19  1  0
 14 20  1  0
V    3 *
M  END
>  <ChEBI ID>  (223) 
CHEBI:167175

>  <ChEBI Name>  (223) 
N-[2-(3,4-dihydroxyphenyl)ethyl]-L-glutamine residue

>  <Star>  (223) 
2

>  <Definition>  (223) 
An alpha-amino-acid residue formed from N-[2-(3,4-dihydroxyphenyl)ethyl]-L-glutamine.

>  <SMILES>  (223) 
O=C(*)[C@@H](N*)CCC(=O)NCCC1=CC(=C(C=C1)O)O

>  <Formulae>  (223) 
C13H16N2O4

>  <Charge>  (223) 
0

>  <Mass>  (223) 
264.278

>  <Monoisotopic Mass>  (223) 
264.11101

>  <Synonyms>  (223) 
5-glutamyl dopamine residue
N-[2-(3,4-dihydroxyphenyl)ethyl]-L-glutamine residue

>  <PubMed citation Links>  (223) 
32273471

>  <PubChem Database Links>  (223) 
SID: 85366403

>  <Rhea Database Links>  (223) 
RHEA:66556

$$$$

     RDKit          2D

 21 21  0  0  1  0  0  0  0  0999 V2000
   -4.4619   -3.5600    0.0000 O   0  0  0  0  0  0  0  0  0  0  0  0
   -5.3449   -3.0905    0.0000 C   0  0  0  0  0  0  0  0  0  0  0  0
   -6.1928   -3.6205    0.0000 O   0  0  0  0  0  0  0  0  0  0  0  0
   -5.3797   -2.0910    0.0000 C   0  0  0  0  0  0  0  0  0  0  0  0
   -4.5317   -1.5612    0.0000 C   0  0  0  0  0  0  0  0  0  0  0  0
   -4.5666   -0.5618    0.0000 C   0  0  0  0  0  0  0  0  0  0  0  0
   -3.7185   -0.0319    0.0000 C   0  0  0  0  0  0  0  0  0  0  0  0
   -3.7533    0.9675    0.0000 N   0  0  0  0  0  0  0  0  0  0  0  0
   -2.8355   -0.5013    0.0000 O   0  0  0  0  0  0  0  0  0  0  0  0
   -6.2627   -1.6216    0.0000 N   0  0  0  0  0  0  0  0  0  0  0  0
   -2.9053    1.4974    0.0000 C   0  0  0  0  0  0  0  0  0  0  0  0
   -2.9402    2.4968    0.0000 C   0  0  0  0  0  0  0  0  0  0  0  0
   -2.0921    3.0266    0.0000 C   0  0  0  0  0  0  0  0  0  0  0  0
   -1.2262    4.5267    0.0000 C   0  0  0  0  0  0  0  0  0  0  0  0
   -2.0921    4.0266    0.0000 C   0  0  0  0  0  0  0  0  0  0  0  0
   -1.2262    2.5266    0.0000 C   0  0  0  0  0  0  0  0  0  0  0  0
   -0.3601    3.0266    0.0000 C   0  0  0  0  0  0  0  0  0  0  0  0
   -0.3601    4.0266    0.0000 C   0  0  0  0  0  0  0  0  0  0  0  0
    0.5059    4.5266    0.0000 O   0  0  0  0  0  0  0  0  0  0  0  0
   -1.2262    5.5267    0.0000 O   0  0  0  0  0  0  0  0  0  0  0  0
   -3.7789    3.0414    0.0000 O   0  0  0  0  0  0  0  0  0  0  0  0
  2  1  2  0
  3  2  1  0
  4  2  1  0
  4 10  1  1
  4  5  1  0
  6  5  1  0
  9  7  2  0
  8  7  1  0
  6  7  1  0
  8 11  1  0
 11 12  1  0
 12 13  1  0
 14 15  1  0
 16 17  2  0
 17 18  1  0
 14 18  2  0
 15 13  2  0
 13 16  1  0
 18 19  1  0
 14 20  1  0
 12 21  1  6
V    3 *
M  END
>  <ChEBI ID>  (224) 
CHEBI:167178

>  <ChEBI Name>  (224) 
N-[(2R)-2-(3,4-dihydroxyphenyl)-2-hydroxyethyl]-L-glutamine residue

>  <Star>  (224) 
2

>  <Definition>  (224) 
An alpha-amino-acid residue formed from N-[(2R)-2-(3,4-dihydroxyphenyl)-2-hydroxyethyl]-L-glutamine.

>  <SMILES>  (224) 
O=C(*)[C@@H](N*)CCC(=O)NC[C@@H](C1=CC(=C(C=C1)O)O)O

>  <Formulae>  (224) 
C13H16N2O5

>  <Charge>  (224) 
0

>  <Mass>  (224) 
280.277

>  <Monoisotopic Mass>  (224) 
280.10592

>  <Synonyms>  (224) 
5-glutamyl noradrenaline residue
N-[(2R)-2-(3,4-dihydroxyphenyl)-2-hydroxyethyl]-L-glutamine residue

>  <PubMed citation Links>  (224) 
23797785

>  <PubChem Database Links>  (224) 
SID: 85366406

>  <Rhea Database Links>  (224) 
RHEA:66560

$$$$

     RDKit          2D

 17 17  0  0  1  0  0  0  0  0999 V2000
   45.3350  -26.0524    0.0000 C   0  0  0  0  0  0  0  0  0  0  0  0
   45.2324  -25.0543    0.0000 C   0  0  0  0  0  0  0  0  0  0  0  0
   44.2548  -24.8534    0.0000 N   0  0  0  0  0  0  0  0  0  0  0  0
   43.7556  -25.7206    0.0000 C   0  0  0  0  0  0  0  0  0  0  0  0
   44.4238  -26.4591    0.0000 N   0  0  0  0  0  0  0  0  0  0  0  0
   46.2024  -26.5517    0.0000 C   0  0  0  0  0  0  0  0  0  0  0  0
   47.0687  -26.0497    0.0000 C   0  0  0  0  0  0  0  0  0  0  0  0
   47.9299  -26.5454    0.0000 N   0  0  0  0  0  0  0  0  0  0  0  0
   48.7927  -26.0493    0.0000 C   0  0  0  0  0  0  0  0  0  0  0  0
   49.6599  -26.5485    0.0000 C   0  0  0  0  0  0  0  0  0  0  0  0
   50.5261  -26.0466    0.0000 C   0  0  0  0  0  0  0  0  0  0  0  0
   51.3934  -26.5459    0.0000 C   0  0  0  0  0  0  0  0  0  0  0  0
   52.2609  -26.0466    0.0000 C   0  0  0  0  0  0  0  0  0  0  0  0
   53.1283  -26.5459    0.0000 O   0  0  0  0  0  0  0  0  0  0  0  0
   48.7917  -25.0483    0.0000 O   0  0  0  0  0  0  0  0  0  0  0  0
   51.3934  -27.5494    0.0000 N   0  0  0  0  0  0  0  0  0  0  0  0
   52.2609  -25.0431    0.0000 O   0  0  0  0  0  0  0  0  0  0  0  0
  3  4  1  0
  8  9  1  0
  4  5  2  0
  9 10  1  0
  5  1  1  0
 10 11  1  0
 12 11  1  0
  1  6  1  0
 12 13  1  0
  1  2  2  0
 13 14  1  0
  6  7  1  0
  9 15  2  0
  2  3  1  0
 12 16  1  1
  7  8  1  0
 13 17  2  0
V   14 *
M  END
>  <ChEBI ID>  (225) 
CHEBI:167179

>  <ChEBI Name>  (225) 
N-[2-(1H-imidazol-4-yl)ethyl]-L-glutamine residue

>  <Star>  (225) 
3

>  <Definition>  (225) 
An L-alpha-amino acid residue residue derived from N(alpha)-gamma-L-glutamylhistamine

>  <SMILES>  (225) 
*-N[C@@H](CCC(=O)NCCC1=CNC=N1)C(-*)=O

>  <Formulae>  (225) 
C10H14N4O2

>  <Charge>  (225) 
0

>  <Mass>  (225) 
222.244

>  <Monoisotopic Mass>  (225) 
222.11168

>  <Synonyms>  (225) 
N(5)-[2-(1H-imidazol-4-yl)ethyl]-L-glutamine residue
N(alpha)-gamma-L-glutamylhistamine residue
N-[2-(1H-imidazol-4-yl)ethyl]-L-glutamine residue

>  <PubMed citation Links>  (225) 
23797785
23022564

>  <PubChem Database Links>  (225) 
SID: 85366407

>  <Rhea Database Links>  (225) 
RHEA:66564

>  <Last Modified>  (225) 
12 Apr 2021

$$$$

     RDKit          2D

  9  8  0  0  1  0  0  0  0  0999 V2000
   11.9955   -6.5304    0.0000 O   0  0  0  0  0  0  0  0  0  0  0  0
   11.9955   -7.5304    0.0000 C   0  0  0  0  0  0  0  0  0  0  0  0
   12.8615   -8.0304    0.0000 O   0  0  0  0  0  0  0  0  0  0  0  0
   11.1294   -8.0304    0.0000 C   0  0  0  0  0  0  0  0  0  0  0  0
   11.1294   -9.0304    0.0000 N   0  0  0  0  0  0  0  0  0  0  0  0
   10.2633   -7.5304    0.0000 C   0  0  0  0  0  0  0  0  0  0  0  0
   10.2633   -6.5304    0.0000 O   0  0  0  0  0  0  0  0  0  0  0  0
    9.3974   -8.0304    0.0000 C   0  0  0  0  0  0  0  0  0  0  0  0
    9.3973   -6.0303    0.0000 C   0  0  0  0  0  0  0  0  0  0  0  0
  2  1  2  0
  3  2  1  0
  4  2  1  0
  4  5  1  1
  6  4  1  0
  6  7  1  0
  6  8  1  1
  7  9  1  0
V    3 *
M  END
>  <ChEBI ID>  (226) 
CHEBI:167628

>  <ChEBI Name>  (226) 
O-methyl-L-threonine residue

>  <Star>  (226) 
3

>  <Definition>  (226) 
An L-alpha-amino acid residue that is L-threonine residue in which the hydroxy group of the side chain is replaced by a methoxy group. It is a post-translational modification that occurs in thiocillin antibiotics.

>  <SMILES>  (226) 
CO[C@H](C)[C@H](N-*)C(-*)=O

>  <Formulae>  (226) 
C5H9NO2

>  <Charge>  (226) 
0

>  <Mass>  (226) 
115.131

>  <Monoisotopic Mass>  (226) 
115.06333

>  <Synonyms>  (226) 
(2S,3R)-2-amino-3-methoxybutanoic acid residue
L-O-methylthreonine residue
L-threonine methyl ether residue
O-methyl threonine residue
O-methyl-L-threonine residue
O-methyl-threonine residue
O-methylthreonine residue

>  <PubMed citation Links>  (226) 
7328054
19196969

>  <RESID Database Links>  (226) 
AA0464

>  <PubChem Database Links>  (226) 
SID: 85366842

>  <Last Modified>  (226) 
11 Mar 2021

$$$$

     RDKit          2D

 18 17  0  1  1  0  0  0  0  0999 V2000
   12.2146  -12.9500    0.0000 C   0  0  0  0  0  0  0  0  0  0  0  0
   12.2146  -11.9500    0.0000 O   0  0  0  0  0  0  0  0  0  0  0  0
   11.3484  -13.4500    0.0000 C   0  0  0  0  0  0  0  0  0  0  0  0
   11.3484  -14.4500    0.0000 N   0  0  0  0  0  0  0  0  0  0  0  0
   10.4826  -12.9500    0.0000 C   0  0  0  0  0  0  0  0  0  0  0  0
    8.7505  -12.9499    0.0000 C   0  0  0  0  0  0  0  0  0  0  0  0
    8.7505  -11.9499    0.0000 N   0  0  0  0  0  0  0  0  0  0  0  0
    7.8844  -13.4499    0.0000 O   0  0  0  0  0  0  0  0  0  0  0  0
    9.6165  -13.4500    0.0000 C   0  0  0  0  0  0  0  0  0  0  0  0
   13.0806  -13.4500    0.0000 O   0  0  0  0  0  0  0  0  0  0  0  0
    7.0183  -11.9499    0.0000 C   0  0  0  0  0  0  0  0  0  0  0  0
    6.1525  -11.4498    0.0000 N   0  0  0  0  0  0  0  0  0  0  0  0
    7.8844  -11.4499    0.0000 C   0  0  0  0  0  0  0  0  0  0  0  0
    7.0182  -12.9499    0.0000 O   0  0  0  0  0  0  0  0  0  0  0  0
    4.4204  -11.4498    0.0000 C   0  0  0  0  0  0  0  0  0  0  0  0
    3.5543  -11.9498    0.0000 O   0  0  0  0  0  0  0  0  0  0  0  0
    5.2865  -11.9498    0.0000 C   0  0  0  0  0  0  0  0  0  0  0  0
    4.4204  -10.4498    0.0000 O   0  0  0  0  0  0  0  0  0  0  0  0
  1 10  1  0
  2  1  2  0
  3  1  1  0
  3  4  1  1
  3  5  1  0
  7  6  1  0
  8  6  2  0
  9  6  1  0
  5  9  1  0
 11 14  2  0
 12 11  1  0
 13 11  1  0
 13  7  1  0
 15 18  2  0
 16 15  1  0
 17 15  1  0
 17 12  1  0
V   10 *
M  STY  1   1 SRU
M  SLB  1   1   1
M  SCN  1   1 HT 
M  SAL   1  4  18  15  17  12
M  SBL   1  2  11  15
M  SDI   1  4    6.5855  -10.9498    6.5854  -12.4498
M  SDI   1  4    3.9873  -12.4498    3.9874  -10.9498
M  SMT   1 n
M  END
>  <ChEBI ID>  (227) 
CHEBI:167891

>  <ChEBI Name>  (227) 
poly(glycyl)-glycyl-L-glutamate residue

>  <Star>  (227) 
2

>  <Formulae>  (227) 
(C2H3NO)n.C5H6NO3

>  <Charge>  (227) 
-1

>  <Mass>  (227) 
0.0

>  <Monoisotopic Mass>  (227) 
0.0

>  <Synonyms>  (227) 
poly(glycyl)-glycyl-L-glutamate residue

>  <PubMed citation Links>  (227) 
18331838

>  <PubChem Database Links>  (227) 
SID: 85367092

>  <Rhea Database Links>  (227) 
RHEA:67184

$$$$

     RDKit          2D

 28 27  0  0  0  0  0  0  0  0999 V2000
    9.7283   -9.8260    0.0000 N   0  0  0  0  0  0  0  0  0  0  0  0
   11.4606   -9.8260    0.0000 C   0  0  0  0  0  0  0  0  0  0  0  0
   11.4606  -10.8260    0.0000 O   0  0  0  0  0  0  0  0  0  0  0  0
   10.5944   -9.3260    0.0000 C   0  0  0  0  0  0  0  0  0  0  0  0
   10.5944   -8.3258    0.0000 R   0  0  0  0  0  0  0  0  0  0  0  0
   14.9158   -9.8243    0.0000 N   0  0  0  0  0  0  0  0  0  0  0  0
   14.0684   -9.3260    0.0000 C   0  0  0  0  0  0  0  0  0  0  0  0
   13.1976   -9.8287    0.0000 C   0  0  0  0  0  0  0  0  0  0  0  0
   12.3268   -9.3260    0.0000 N   0  0  0  0  0  0  0  0  0  0  0  0
   14.0684   -8.3204    0.0000 O   0  0  0  0  0  0  0  0  0  0  0  0
   19.2458   -9.3242    0.0000 O   0  0  0  0  0  0  0  0  0  0  0  0
   20.1117   -9.8242    0.0000 C   0  0  0  0  0  0  0  0  0  0  0  0
   20.9778   -9.3242    0.0000 C   0  0  0  0  0  0  0  0  0  0  0  0
   21.8439   -9.8242    0.0000 C   0  0  0  0  0  0  0  0  0  0  0  0
   22.7099   -9.3242    0.0000 O   0  0  0  0  0  0  0  0  0  0  0  0
   23.5759   -9.8240    0.0000 C   0  0  0  0  0  0  0  0  0  0  0  0
   23.5759  -10.8240    0.0000 O   0  0  0  0  0  0  0  0  0  0  0  0
   18.3797  -10.8243    0.0000 O   0  0  0  0  0  0  0  0  0  0  0  0
   16.6476   -9.8243    0.0000 C   0  0  0  0  0  0  0  0  0  0  0  0
   15.7815   -9.3243    0.0000 C   0  0  0  0  0  0  0  0  0  0  0  0
   17.5137   -9.3243    0.0000 O   0  0  0  0  0  0  0  0  0  0  0  0
   18.3797   -9.8242    0.0000 P   0  0  0  0  0  0  0  0  0  0  0  0
   18.3649   -8.8243    0.0000 O   0  0  0  0  0  0  0  0  0  0  0  0
   21.8436   -7.8240    0.0000 C   0  0  0  0  0  0  0  0  0  0  0  0
   21.8436   -6.8242    0.0000 O   0  0  0  0  0  0  0  0  0  0  0  0
   20.9777   -8.3242    0.0000 O   0  0  0  0  0  0  0  0  0  0  0  0
   24.4420   -9.3239    0.0000 R#  0  0  0  0  0  0  0  0  0  0  0  0
   22.7097   -8.3240    0.0000 R#  0  0  0  0  0  0  0  0  0  0  0  0
  3  2  2  0
  4  2  1  0
  4  1  1  0
  4  5  1  1
  6  7  1  0
  7  8  1  0
  8  9  1  0
  7 10  2  0
 11 22  1  0
 11 12  1  0
 13 12  1  6
 13 26  1  0
 13 14  1  0
 14 15  1  0
 16 15  1  0
 16 27  1  0
 16 17  2  0
 18 22  2  0
 19 20  1  0
 19 21  1  0
 21 22  1  0
 22 23  1  0
 24 28  1  0
 24 25  2  0
 24 26  1  0
  6 20  1  0
  9  2  1  0
M  RGP  2  27   1  28   2
V    5 *
V   27 *
V   28 *
M  END
>  <ChEBI ID>  (228) 
CHEBI:172941

>  <ChEBI Name>  (228) 
C-terminal amino acid- phosphatidylethanolamine amidated glycine residue(1-)

>  <Star>  (228) 
2

>  <SMILES>  (228) 
*N[C@H](C(=O)NCC(NCCOP(OC[C@H](OC(*)=O)COC(*)=O)(=O)[O-])=O)*

>  <Formulae>  (228) 
C11H15N3O10PR3

>  <Charge>  (228) 
-1

>  <Mass>  (228) 
380.225

>  <Monoisotopic Mass>  (228) 
380.04951

>  <Synonyms>  (228) 
C-terminal L-amino acid-(phosphatidylethanolamine)-amidated glycine residue

>  <PubChem Database Links>  (228) 
SID: 85372051

>  <Rhea Database Links>  (228) 
RHEA:67548
RHEA:67664

$$$$

     RDKit          2D

 31 30  0  0  0  0  0  0  0  0999 V2000
   19.2653   -9.3337    0.0000 O   0  0  0  0  0  0  0  0  0  0  0  0
   20.1321   -9.8342    0.0000 C   0  0  0  0  0  0  0  0  0  0  0  0
   20.9991   -9.3337    0.0000 C   0  0  0  0  0  0  0  0  0  0  0  0
   21.8660   -9.8342    0.0000 C   0  0  0  0  0  0  0  0  0  0  0  0
   22.7329   -9.3337    0.0000 O   0  0  0  0  0  0  0  0  0  0  0  0
   23.5998   -9.8339    0.0000 C   0  0  0  0  0  0  0  0  0  0  0  0
   23.5998  -10.8350    0.0000 O   0  0  0  0  0  0  0  0  0  0  0  0
   18.3983  -10.8352    0.0000 O   0  0  0  0  0  0  0  0  0  0  0  0
   16.6644   -9.8343    0.0000 C   0  0  0  0  0  0  0  0  0  0  0  0
   15.7974   -9.3338    0.0000 C   0  0  0  0  0  0  0  0  0  0  0  0
   17.5314   -9.3338    0.0000 O   0  0  0  0  0  0  0  0  0  0  0  0
   18.3983   -9.8342    0.0000 P   0  0  0  0  0  0  0  0  0  0  0  0
   18.3835   -8.8333    0.0000 O   0  0  0  0  0  0  0  0  0  0  0  0
   21.8657   -7.8320    0.0000 C   0  0  0  0  0  0  0  0  0  0  0  0
   21.8657   -6.8311    0.0000 O   0  0  0  0  0  0  0  0  0  0  0  0
   20.9989   -8.3328    0.0000 O   0  0  0  0  0  0  0  0  0  0  0  0
   24.4668   -9.3335    0.0000 R#  0  0  0  0  0  0  0  0  0  0  0  0
   22.7327   -8.3325    0.0000 R#  0  0  0  0  0  0  0  0  0  0  0  0
   14.2958   -7.4658    0.0000 C   0  0  0  0  0  0  0  0  0  0  0  0
   13.7925   -6.5941    0.0000 N   0  0  0  0  0  0  0  0  0  0  0  0
   15.2969   -7.4658    0.0000 C   0  0  0  0  0  0  0  0  0  0  0  0
   15.7974   -6.5988    0.0000 O   0  0  0  0  0  0  0  0  0  0  0  0
   14.9304   -9.8343    0.0000 C   0  0  0  0  0  0  0  0  0  0  0  0
   15.7974   -8.3328    0.0000 N   0  0  0  0  0  0  0  0  0  0  0  0
   13.9906   -9.4736    0.0000 O   0  0  0  0  0  0  0  0  0  0  0  0
   14.9280  -10.7915    0.0000 O   0  0  0  0  0  0  0  0  0  0  0  0
   12.0585   -4.5917    0.0000 N   0  0  0  0  0  0  0  0  0  0  0  0
   12.9255   -6.0936    0.0000 C   0  0  0  0  0  0  0  0  0  0  0  0
   12.0586   -6.5940    0.0000 O   0  0  0  0  0  0  0  0  0  0  0  0
   12.9255   -5.0923    0.0000 C   0  0  0  0  0  0  0  0  0  0  0  0
   13.7925   -4.5919    0.0000 R   0  0  0  0  0  0  0  0  0  0  0  0
  1 12  1  0
  1  2  1  0
  3  2  1  6
  3 16  1  0
  3  4  1  0
  4  5  1  0
  6  5  1  0
  6 17  1  0
  6  7  2  0
  8 12  2  0
 10  9  1  1
  9 11  1  0
 11 12  1  0
 12 13  1  0
 14 18  1  0
 14 15  2  0
 14 16  1  0
 19 20  1  0
 19 21  1  0
 21 22  2  0
 10 23  1  0
 23 25  1  0
 23 26  2  0
 10 24  1  0
 21 24  1  0
 29 28  2  0
 30 28  1  0
 30 27  1  0
 30 31  1  1
 20 28  1  0
M  RGP  2  17   1  18   2
V   17 *
V   18 *
V   31 *
M  END
>  <ChEBI ID>  (229) 
CHEBI:172942

>  <ChEBI Name>  (229) 
C-terminal amino acid- phosphatidylserine amidated glycine residue(2-)

>  <Star>  (229) 
2

>  <SMILES>  (229) 
O(P(=O)(OC[C@@H](C([O-])=O)NC(CNC(=O)[C@@H](N*)*)=O)[O-])C[C@H](OC(*)=O)COC(*)=O

>  <Formulae>  (229) 
C12H14N3O12PR3

>  <Charge>  (229) 
-2

>  <Mass>  (229) 
423.227

>  <Monoisotopic Mass>  (229) 
423.03151

>  <Synonyms>  (229) 
C-terminal L-amino acid-(phosphatidylserine)-amidated glycine residue

>  <PubChem Database Links>  (229) 
SID: 85372052

>  <Rhea Database Links>  (229) 
RHEA:67576
RHEA:67912

$$$$

     RDKit          2D

 14 13  0  0  0  0  0  0  0  0999 V2000
   14.9578  -20.6601    0.0000 C   0  0  0  0  0  0  0  0  0  0  0  0
   14.0985  -21.1755    0.0000 C   0  0  0  0  0  0  0  0  0  0  0  0
   13.2393  -20.6601    0.0000 C   0  0  0  0  0  0  0  0  0  0  0  0
   12.3800  -21.1755    0.0000 C   0  0  0  0  0  0  0  0  0  0  0  0
   11.5207  -20.6601    0.0000 C   0  0  0  0  0  0  0  0  0  0  0  0
   10.6616  -21.1755    0.0000 C   0  0  0  0  0  0  0  0  0  0  0  0
   14.9578  -19.6863    0.0000 O   0  0  0  0  0  0  0  0  0  0  0  0
   15.8171  -21.1755    0.0000 O   0  0  0  0  0  0  0  0  0  0  0  0
   16.6848  -20.6745    0.0000 C   0  0  0  0  0  0  0  0  0  0  0  0
   17.5527  -21.1755    0.0000 C   0  0  0  0  0  0  0  0  0  0  0  0
   18.4205  -20.6745    0.0000 C   0  0  0  0  0  0  0  0  0  0  0  0
   19.2884  -21.1755    0.0000 O   0  0  0  0  0  0  0  0  0  0  0  0
   18.4205  -19.6727    0.0000 O   0  0  0  0  0  0  0  0  0  0  0  0
   17.5527  -22.1776    0.0000 N   0  0  0  0  0  0  0  0  0  0  0  0
  2  1  1  0
  8  1  1  0
  7  1  2  0
  3  2  1  0
  3  4  1  0
  5  4  1  0
  5  6  1  0
 10  9  1  0
 10 11  1  0
 11 12  1  0
  8  9  1  0
 11 13  2  0
 10 14  1  1
V   12 *
M  END
>  <ChEBI ID>  (230) 
CHEBI:177289

>  <ChEBI Name>  (230) 
O-hexanoyl-L-serine residue

>  <Star>  (230) 
2

>  <SMILES>  (230) 
C(CCCCC)(OC[C@@H](C(*)=O)N*)=O

>  <Formulae>  (230) 
C9H15NO3

>  <Charge>  (230) 
0

>  <Mass>  (230) 
185.221

>  <Monoisotopic Mass>  (230) 
185.10519

>  <Synonyms>  (230) 
O-caproyl-L-serine residue
O-hexanoyl-L-serine residue

>  <PubMed citation Links>  (230) 
18443287

>  <PubChem Database Links>  (230) 
SID: 85376337

>  <Rhea Database Links>  (230) 
RHEA:68284

>  <Last Modified>  (230) 
09 Aug 2021

$$$$

     RDKit          2D

 30 32  0  0  0  0  0  0  0  0999 V2000
   -0.6908   -3.3417    0.0000 C   0  0  0  0  0  0  0  0  0  0  0  0
   -0.3836   -2.3961    0.0000 C   0  0  0  0  0  0  0  0  0  0  0  0
   -1.0489   -1.6571    0.0000 C   0  0  0  0  0  0  0  0  0  0  0  0
   -2.0215   -1.8638    0.0000 C   0  0  0  0  0  0  0  0  0  0  0  0
   -2.3288   -2.8095    0.0000 C   0  0  0  0  0  0  0  0  0  0  0  0
   -1.6634   -3.5485    0.0000 C   0  0  0  0  0  0  0  0  0  0  0  0
    0.1136   -3.9262    0.0000 N   0  0  0  0  0  0  0  0  0  0  0  0
    1.4720   -1.8989    0.0000 C   0  0  0  0  0  0  0  0  0  0  0  0
    2.3332   -2.3961    0.0000 C   0  0  0  0  0  0  0  0  0  0  0  0
    2.0758   -3.3566    0.0000 N   0  0  0  0  0  0  0  0  0  0  0  0
    3.1944   -1.8989    0.0000 C   0  0  0  0  0  0  0  0  0  0  0  0
    3.1944   -0.9045    0.0000 O   0  0  0  0  0  0  0  0  0  0  0  0
    4.0554   -2.3961    0.0000 O   0  0  0  0  0  0  0  0  0  0  0  0
    0.9181   -3.3417    0.0000 C   0  0  0  0  0  0  0  0  0  0  0  0
    0.6109   -2.3961    0.0000 C   0  0  0  0  0  0  0  0  0  0  0  0
    0.6109   -1.4017    0.0000 C   0  0  0  0  0  0  0  0  0  0  0  0
    1.4720   -0.9045    0.0000 C   0  0  0  0  0  0  0  0  0  0  0  0
    2.3332    0.5871    0.0000 C   0  0  0  0  0  0  0  0  0  0  0  0
    2.3332    1.5815    0.0000 C   0  0  0  0  0  0  0  0  0  0  0  0
    3.1944    2.0786    0.0000 C   0  0  0  0  0  0  0  0  0  0  0  0
    2.3332    3.5702    0.0000 C   0  0  0  0  0  0  0  0  0  0  0  0
    3.1944    3.0730    0.0000 C   0  0  0  0  0  0  0  0  0  0  0  0
    4.0554    3.5702    0.0000 C   0  0  0  0  0  0  0  0  0  0  0  0
    1.4720    0.0899    0.0000 C   0  0  0  0  0  0  0  0  0  0  0  0
    0.6109    0.5871    0.0000 C   0  0  0  0  0  0  0  0  0  0  0  0
    4.0553    4.5702    0.0000 C   0  0  0  0  0  0  0  0  0  0  0  0
    4.9213    5.0703    0.0000 C   0  0  0  0  0  0  0  0  0  0  0  0
    4.9212    6.0703    0.0000 C   0  0  0  0  0  0  0  0  0  0  0  0
    5.7872    6.5703    0.0000 C   0  0  0  0  0  0  0  0  0  0  0  0
    4.0551    6.5702    0.0000 C   0  0  0  0  0  0  0  0  0  0  0  0
 14  7  1  1
  7  1  1  0
 14 15  1  0
 15  2  1  0
  6  1  2  0
  1  2  1  0
  3  2  2  0
  3  4  1  0
  4  5  2  0
  5  6  1  0
 15  8  1  0
  8  9  1  0
  9 11  1  1
  9 10  1  0
 10 14  1  0
 11 12  2  0
 11 13  1  0
 15 16  1  6
 16 17  1  0
 17 24  2  0
 24 18  1  0
 18 19  1  0
 19 20  1  0
 20 22  2  0
 22 21  1  0
 22 23  1  0
 24 25  1  0
 23 26  1  0
 26 27  1  0
 27 28  2  3
 28 29  1  0
 28 30  1  0
V   13 *
M  END
>  <ChEBI ID>  (231) 
CHEBI:177368

>  <ChEBI Name>  (231) 
(2S,3R)-3-farnesyl-2,3-dihydro-2,N(alpha)-cyclo-L-tryptophan residue

>  <Star>  (231) 
2

>  <SMILES>  (231) 
C1=2N[C@]3([C@@](C1=CC=CC2)(C[C@@H](C(=O)*)N3*)C/C=C(/CC/C=C(\C)/CCC=C(C)C)\C)[H]

>  <Formulae>  (231) 
C26H34N2O

>  <Charge>  (231) 
0

>  <Mass>  (231) 
390.562

>  <Monoisotopic Mass>  (231) 
390.26711

>  <Synonyms>  (231) 
(2S,3R)-3-farnesyl-2,3-dihydro-2,N(alpha)-cyclo-L-tryptophan residue

>  <PubMed citation Links>  (231) 
31670609
29665236
18323630

>  <RESID Database Links>  (231) 
AA0500

>  <PubChem Database Links>  (231) 
SID: 85376416

>  <Rhea Database Links>  (231) 
RHEA:68384

$$$$

     RDKit          2D

 14 14  0  0  1  0  0  0  0  0999 V2000
    2.1937    1.7707    0.0000 O   0  0  0  0  0  0  0  0  0  0  0  0
    2.1937    0.7707    0.0000 C   0  0  0  0  0  0  0  0  0  0  0  0
    1.3276    0.2707    0.0000 C   0  0  0  0  0  0  0  0  0  0  0  0
    0.4617    0.7707    0.0000 C   0  0  0  0  0  0  0  0  0  0  0  0
   -0.4044    0.2707    0.0000 C   0  0  0  0  0  0  0  0  0  0  0  0
   -0.4044   -0.7293    0.0000 C   0  0  0  0  0  0  0  0  0  0  0  0
   -1.2704    0.7707    0.0000 C   0  0  0  0  0  0  0  0  0  0  0  0
   -2.1364    0.2707    0.0000 C   0  0  0  0  0  0  0  0  0  0  0  0
   -1.2704   -1.2293    0.0000 C   0  0  0  0  0  0  0  0  0  0  0  0
   -2.1364   -0.7293    0.0000 C   0  0  0  0  0  0  0  0  0  0  0  0
   -3.0024   -1.2293    0.0000 O   0  0  0  0  0  0  0  0  0  0  0  0
    1.3276   -0.7293    0.0000 N   0  0  0  0  0  0  0  0  0  0  0  0
    3.0598    0.2707    0.0000 O   0  0  0  0  0  0  0  0  0  0  0  0
   -1.2704   -2.2293    0.0000 Br  0  0  0  0  0  0  0  0  0  0  0  0
  2  1  2  0
 13  2  1  0
  3  2  1  0
  3 12  1  1
  3  4  1  0
  5  4  1  0
  6  5  2  0
  7  5  1  0
  8  7  2  0
  9  6  1  0
 10  8  1  0
  9 10  2  0
 11 10  1  0
  9 14  1  0
V   13 *
M  END
>  <ChEBI ID>  (232) 
CHEBI:183512

>  <ChEBI Name>  (232) 
3-bromo-L-tyrosine residue

>  <Star>  (232) 
3

>  <Definition>  (232) 
An L-alpha-amino-acid residue derived from 3-bromo-L-tyrosine.

>  <SMILES>  (232) 
OC1=CC=C(C[C@H](N-*)C(-*)=O)C=C1Br

>  <Formulae>  (232) 
C9H8BrNO2

>  <Charge>  (232) 
0

>  <Mass>  (232) 
242.069

>  <Monoisotopic Mass>  (232) 
240.97384

>  <Synonyms>  (232) 
3-bromo-L-tyrosine residue
3-bromotyrosine residue

>  <PubMed citation Links>  (232) 
10811853
12208372

>  <PubChem Database Links>  (232) 
SID: 85382478

>  <Rhea Database Links>  (232) 
RHEA:69356
RHEA:69360

>  <Last Modified>  (232) 
22 Nov 2021

$$$$

     RDKit          2D

 46 50  0  0  0  0  0  0  0  0999 V2000
    9.0361   -4.7491    0.0000 N   0  0  0  0  0  0  0  0  0  0  0  0
   10.0143   -4.9570    0.0000 C   0  0  0  0  0  0  0  0  0  0  0  0
    8.2932   -5.4183    0.0000 C   0  0  0  0  0  0  0  0  0  0  0  0
    8.9316   -3.7546    0.0000 C   0  0  0  0  0  0  0  0  0  0  0  0
   10.5143   -4.0910    0.0000 C   0  0  0  0  0  0  0  0  0  0  0  0
   10.5144   -5.8231    0.0000 N   0  0  0  0  0  0  0  0  0  0  0  0
    7.3149   -5.2103    0.0000 O   0  0  0  0  0  0  0  0  0  0  0  0
    8.3976   -6.4128    0.0000 C   0  0  0  0  0  0  0  0  0  0  0  0
    9.8451   -3.3478    0.0000 N   0  0  0  0  0  0  0  0  0  0  0  0
   11.5143   -4.0909    0.0000 C   0  0  0  0  0  0  0  0  0  0  0  0
   11.5144   -5.8231    0.0000 C   0  0  0  0  0  0  0  0  0  0  0  0
    6.8149   -6.0765    0.0000 C   0  0  0  0  0  0  0  0  0  0  0  0
    7.4841   -6.8196    0.0000 C   0  0  0  0  0  0  0  0  0  0  0  0
    9.2636   -6.9130    0.0000 O   0  0  0  0  0  0  0  0  0  0  0  0
   12.0143   -4.9570    0.0000 N   0  0  0  0  0  0  0  0  0  0  0  0
   12.0143   -3.2250    0.0000 N   0  0  0  0  0  0  0  0  0  0  0  0
    5.8204   -6.1810    0.0000 C   0  0  0  0  0  0  0  0  0  0  0  0
    7.2761   -7.7977    0.0000 O   0  0  0  0  0  0  0  0  0  0  0  0
    5.2325   -5.3719    0.0000 O   0  0  0  0  0  0  0  0  0  0  0  0
    2.2325   -3.6401    0.0000 O   0  0  0  0  0  0  0  0  0  0  0  0
    1.2378   -3.7445    0.0000 C   0  0  0  0  0  0  0  0  0  0  0  0
    0.6503   -2.9355    0.0000 C   0  0  0  0  0  0  0  0  0  0  0  0
    0.9592   -1.9846    0.0000 O   0  0  0  0  0  0  0  0  0  0  0  0
   -0.3499   -2.9356    0.0000 C   0  0  0  0  0  0  0  0  0  0  0  0
    0.1502   -1.3967    0.0000 C   0  0  0  0  0  0  0  0  0  0  0  0
   -0.6589   -1.9846    0.0000 C   0  0  0  0  0  0  0  0  0  0  0  0
   -0.9376   -3.7446    0.0000 O   0  0  0  0  0  0  0  0  0  0  0  0
   -1.6099   -1.6755    0.0000 O   0  0  0  0  0  0  0  0  0  0  0  0
    3.7325   -4.5061    0.0000 O   0  0  0  0  0  0  0  0  0  0  0  0
    3.7326   -6.2381    0.0000 O   0  0  0  0  0  0  0  0  0  0  0  0
    2.2326   -5.3721    0.0000 O   0  0  0  0  0  0  0  0  0  0  0  0
    2.7326   -4.5061    0.0000 P   0  0  0  0  0  0  0  0  0  0  0  0
    3.2324   -3.6400    0.0000 O   0  0  0  0  0  0  0  0  0  0  0  0
    4.2325   -5.3720    0.0000 P   0  0  0  0  0  0  0  0  0  0  0  0
    4.7324   -4.5060    0.0000 O   0  0  0  0  0  0  0  0  0  0  0  0
    0.1502   -0.3967    0.0000 N   0  0  0  0  0  0  0  0  0  0  0  0
    0.6501    1.1422    0.0000 N   0  0  0  0  0  0  0  0  0  0  0  0
    1.1501   -0.3967    0.0000 C   0  0  0  0  0  0  0  0  0  0  0  0
   -0.1589    0.5544    0.0000 C   0  0  0  0  0  0  0  0  0  0  0  0
    1.4590    0.5544    0.0000 C   0  0  0  0  0  0  0  0  0  0  0  0
    2.3252    1.0544    0.0000 C   0  0  0  0  0  0  0  0  0  0  0  0
    3.1913    0.5544    0.0000 C   0  0  0  0  0  0  0  0  0  0  0  0
    4.0571    1.0544    0.0000 C   0  0  0  0  0  0  0  0  0  0  0  0
    4.0571    2.0544    0.0000 O   0  0  0  0  0  0  0  0  0  0  0  0
    3.1913   -0.4455    0.0000 N   0  0  0  0  0  0  0  0  0  0  0  0
    4.9232    0.5544    0.0000 O   0  0  0  0  0  0  0  0  0  0  0  0
  1  2  1  0
  3  1  1  1
  1  4  1  0
  2  5  2  0
  2  6  1  0
  3  7  1  0
  3  8  1  0
  4  9  2  0
  5 10  1  0
  6 11  2  0
  7 12  1  0
  8 13  1  0
  8 14  1  6
 10 15  2  0
 10 16  1  0
 12 17  1  1
 13 18  1  6
 17 19  1  0
 20 21  1  0
 22 21  1  6
 22 23  1  0
 22 24  1  0
 23 25  1  0
 24 26  1  0
 24 27  1  1
 26 28  1  1
  5  9  1  0
 11 15  1  0
 12 13  1  0
 25 26  1  0
 19 34  1  0
 34 29  1  0
 29 32  1  0
 34 30  2  0
 32 20  1  0
 32 31  2  0
 32 33  1  0
 34 35  1  0
 25 36  1  0
 40 37  1  0
 39 37  2  0
 38 40  2  0
 36 38  1  0
 39 36  1  0
 40 41  1  0
 42 41  1  0
 42 43  1  0
 42 45  1  1
 43 44  2  0
 43 46  1  0
V   46 *
M  END
>  <ChEBI ID>  (233) 
CHEBI:191398

>  <ChEBI Name>  (233) 
N(tele)-(ADP-D-ribosyl)-L-histidyl(2-) residue

>  <Star>  (233) 
2

>  <Definition>  (233) 
An organic anionic group obtained by deprotonation of the diphosphate OH groups of N(tele)-(ADP-D-ribosyl)-L-histidyl residue; major microspeciess at pH 7.3.

>  <SMILES>  (233) 
N1(C2=C(C(=NC=N2)N)N=C1)[C@@H]3O[C@H](COP(OP(OC[C@H]4OC([C@@H]([C@@H]4O)O)N5C=C(N=C5)C[C@@H](C(=O)*)N*)(=O)[O-])(=O)[O-])[C@H]([C@H]3O)O

>  <Formulae>  (233) 
C21H26N8O14P2

>  <Charge>  (233) 
-2

>  <Mass>  (233) 
676.425

>  <Monoisotopic Mass>  (233) 
676.10437

>  <Synonyms>  (233) 
N(tele)-(ADP-D-ribosyl)-L-histidyl residue

>  <PubMed citation Links>  (233) 
35393539

>  <PubChem Database Links>  (233) 
SID: 85390190

$$$$

     RDKit          2D

 43 46  0  0  0  0  0  0  0  0999 V2000
    4.7147    2.4412    0.0000 N   0  0  0  0  0  0  0  0  0  0  0  0
    5.6657    2.7502    0.0000 C   0  0  0  0  0  0  0  0  0  0  0  0
    4.4057    1.4902    0.0000 C   0  0  0  0  0  0  0  0  0  0  0  0
    4.1269    3.2502    0.0000 C   0  0  0  0  0  0  0  0  0  0  0  0
    5.6657    3.7502    0.0000 C   0  0  0  0  0  0  0  0  0  0  0  0
    6.5318    2.2502    0.0000 N   0  0  0  0  0  0  0  0  0  0  0  0
    3.4545    1.1811    0.0000 O   0  0  0  0  0  0  0  0  0  0  0  0
    4.9935    0.6811    0.0000 C   0  0  0  0  0  0  0  0  0  0  0  0
    4.7147    4.0593    0.0000 N   0  0  0  0  0  0  0  0  0  0  0  0
    6.5318    4.2502    0.0000 C   0  0  0  0  0  0  0  0  0  0  0  0
    7.3979    2.7502    0.0000 C   0  0  0  0  0  0  0  0  0  0  0  0
    3.4545    0.1811    0.0000 C   0  0  0  0  0  0  0  0  0  0  0  0
    4.4057   -0.1279    0.0000 C   0  0  0  0  0  0  0  0  0  0  0  0
    5.9935    0.6811    0.0000 O   0  0  0  0  0  0  0  0  0  0  0  0
    7.3979    3.7502    0.0000 N   0  0  0  0  0  0  0  0  0  0  0  0
    6.5318    5.2502    0.0000 N   0  0  0  0  0  0  0  0  0  0  0  0
    2.6456   -0.4067    0.0000 C   0  0  0  0  0  0  0  0  0  0  0  0
    4.7147   -1.0789    0.0000 O   0  0  0  0  0  0  0  0  0  0  0  0
    1.7320    0.0001    0.0000 O   0  0  0  0  0  0  0  0  0  0  0  0
   -1.7320   -0.0001    0.0000 O   0  0  0  0  0  0  0  0  0  0  0  0
   -2.5411   -0.5879    0.0000 C   0  0  0  0  0  0  0  0  0  0  0  0
   -3.4545   -0.1811    0.0000 C   0  0  0  0  0  0  0  0  0  0  0  0
   -3.6625    0.7970    0.0000 O   0  0  0  0  0  0  0  0  0  0  0  0
   -4.3206   -0.6811    0.0000 C   0  0  0  0  0  0  0  0  0  0  0  0
   -4.6570    0.9016    0.0000 C   0  0  0  0  0  0  0  0  0  0  0  0
   -5.0638   -0.0120    0.0000 C   0  0  0  0  0  0  0  0  0  0  0  0
   -4.4251   -1.6758    0.0000 O   0  0  0  0  0  0  0  0  0  0  0  0
   -5.1570    1.7675    0.0000 O   0  0  0  0  0  0  0  0  0  0  0  0
   -6.0419   -0.2199    0.0000 O   0  0  0  0  0  0  0  0  0  0  0  0
    0.0000    0.0000    0.0000 O   0  0  0  0  0  0  0  0  0  0  0  0
    0.8661   -1.4999    0.0000 O   0  0  0  0  0  0  0  0  0  0  0  0
   -0.8659   -1.5000    0.0000 O   0  0  0  0  0  0  0  0  0  0  0  0
   -0.8659   -0.5000    0.0000 P   0  0  0  0  0  0  0  0  0  0  0  0
   -0.8661    0.4999    0.0000 O   0  0  0  0  0  0  0  0  0  0  0  0
    0.8661   -0.5000    0.0000 P   0  0  0  0  0  0  0  0  0  0  0  0
    0.8659    0.5000    0.0000 O   0  0  0  0  0  0  0  0  0  0  0  0
   -6.1570    1.7675    0.0000 C   0  0  0  0  0  0  0  0  0  0  0  0
   -6.6570    2.6335    0.0000 C   0  0  0  0  0  0  0  0  0  0  0  0
   -7.6570    2.6335    0.0000 N   0  0  0  0  0  0  0  0  0  0  0  0
   -6.1571    3.4995    0.0000 C   0  0  0  0  0  0  0  0  0  0  0  0
   -6.6571    4.3656    0.0000 O   0  0  0  0  0  0  0  0  0  0  0  0
   -5.1571    3.4995    0.0000 O   0  0  0  0  0  0  0  0  0  0  0  0
   -6.6570    0.9015    0.0000 C   0  0  0  0  0  0  0  0  0  0  0  0
  1  2  1  0
  3  1  1  1
  1  4  1  0
  2  5  2  0
  2  6  1  0
  3  7  1  0
  3  8  1  0
  4  9  2  0
  5 10  1  0
  6 11  2  0
  7 12  1  0
  8 13  1  0
  8 14  1  6
 10 15  2  0
 10 16  1  0
 12 17  1  1
 13 18  1  6
 17 19  1  0
 20 21  1  0
 22 21  1  6
 22 23  1  0
 22 24  1  0
 23 25  1  0
 24 26  1  0
 24 27  1  1
 25 28  1  0
 26 29  1  1
  5  9  1  0
 11 15  1  0
 12 13  1  0
 25 26  1  0
 19 35  1  0
 35 30  1  0
 30 33  1  0
 35 31  2  0
 33 20  1  0
 33 32  2  0
 33 34  1  0
 35 36  1  0
 28 37  1  0
 38 37  1  0
 38 39  1  6
 38 40  1  0
 40 41  2  0
 40 42  1  0
 37 43  1  6
V   42 *
M  END
>  <ChEBI ID>  (234) 
CHEBI:192363

>  <ChEBI Name>  (234) 
O-(ADP-D-ribosyl)-L-threonine(2-) residue

>  <Star>  (234) 
2

>  <Definition>  (234) 
An organic anionic group obtained by deprotonation of the diphosphate OH groups of O-(ADP-D-ribosyl)-L-threonine residue; major microspecies at pH 7.3.

>  <SMILES>  (234) 
N1(C2=C(C(=NC=N2)N)N=C1)[C@@H]3O[C@H](COP(OP(OC[C@H]4OC(O[C@@H]([C@H](N*)C(=O)*)C)[C@@H]([C@@H]4O)O)(=O)[O-])(=O)[O-])[C@H]([C@H]3O)O

>  <Formulae>  (234) 
C19H26N6O15P2

>  <Charge>  (234) 
-2

>  <Mass>  (234) 
640.389

>  <Monoisotopic Mass>  (234) 
640.09314

>  <Synonyms>  (234) 
O-(ADP-D-ribosyl)-L-threonine residue

>  <PubMed citation Links>  (234) 
32330457

>  <PubChem Database Links>  (234) 
SID: 85391147

$$$$

     RDKit          2D

  9  8  0  0  1  0  0  0  0  0999 V2000
    0.8661    0.1250    0.0000 C   0  0  0  0  0  0  0  0  0  0  0  0
    0.0000   -0.3750    0.0000 C   0  0  0  0  0  0  0  0  0  0  0  0
   -0.8661    0.1250    0.0000 C   0  0  0  0  0  0  0  0  0  0  0  0
   -0.8661    1.1250    0.0000 C   0  0  0  0  0  0  0  0  0  0  0  0
   -1.7320   -0.3750    0.0000 C   0  0  0  0  0  0  0  0  0  0  0  0
    0.0000   -1.3750    0.0000 N   0  0  0  0  0  0  0  0  0  0  0  0
    1.7320   -0.3750    0.0000 O   0  0  0  0  0  0  0  0  0  0  0  0
    0.8661    1.1250    0.0000 O   0  0  0  0  0  0  0  0  0  0  0  0
    0.8660   -1.8750    0.0000 C   0  0  0  0  0  0  0  0  0  0  0  0
  1  8  2  0
  7  1  1  0
  2  1  1  0
  2  6  1  1
  2  3  1  0
  4  3  1  0
  5  3  1  0
  6  9  1  0
V    7 *
M  END
>  <ChEBI ID>  (235) 
CHEBI:194546

>  <ChEBI Name>  (235) 
N-methyl-L-valine residue

>  <Star>  (235) 
2

>  <Definition>  (235) 
A L-valine residue that is substituted by a methyl group on the backbone nitrogen atom. A post-translational modification occurring on several Val residues on the precursor protein of the fungal peptide macrocycle omphalotin A.

>  <SMILES>  (235) 
C(=O)(*)[C@@H](N(*)C)C(C)C

>  <Formulae>  (235) 
C6H11NO

>  <Charge>  (235) 
0

>  <Mass>  (235) 
113.158

>  <Monoisotopic Mass>  (235) 
113.08406

>  <Synonyms>  (235) 
N-methyl-L-valine residue

>  <PubMed citation Links>  (235) 
28715095
30151425
32491837
33574430

>  <PubChem Database Links>  (235) 
SID: 85393313

$$$$

     RDKit          2D

  9  8  0  0  1  0  0  0  0  0999 V2000
    0.8661    1.1250    0.0000 O   0  0  0  0  0  0  0  0  0  0  0  0
    0.8661    0.1250    0.0000 C   0  0  0  0  0  0  0  0  0  0  0  0
    0.0000   -0.3750    0.0000 C   0  0  0  0  0  0  0  0  0  0  0  0
   -0.8661    0.1250    0.0000 C   0  0  0  0  0  0  0  0  0  0  0  0
   -0.8661    1.1250    0.0000 O   0  0  0  0  0  0  0  0  0  0  0  0
   -1.7320   -0.3750    0.0000 C   0  0  0  0  0  0  0  0  0  0  0  0
    0.0000   -1.3750    0.0000 N   0  0  0  0  0  0  0  0  0  0  0  0
    1.7321   -0.3750    0.0000 O   0  0  0  0  0  0  0  0  0  0  0  0
    0.8660   -1.8750    0.0000 C   0  0  0  0  0  0  0  0  0  0  0  0
  2  1  2  0
  8  2  1  0
  3  2  1  0
  3  7  1  1
  4  3  1  0
  4  5  1  0
  4  6  1  1
  7  9  1  0
V    8 *
M  END
>  <ChEBI ID>  (236) 
CHEBI:194547

>  <ChEBI Name>  (236) 
N-methyl-L-threonine residue

>  <Star>  (236) 
2

>  <SMILES>  (236) 
O=C(*)[C@@H](N(*)C)[C@H](O)C

>  <Formulae>  (236) 
C5H9NO2

>  <Charge>  (236) 
0

>  <Mass>  (236) 
115.131

>  <Monoisotopic Mass>  (236) 
115.06333

>  <Synonyms>  (236) 
N-methyl-L-threonine residue

>  <PubMed citation Links>  (236) 
33574430

>  <PubChem Database Links>  (236) 
SID: 85393314

$$$$

     RDKit          2D

 10  9  0  0  0  0  0  0  0  0999 V2000
   -0.4330    0.2501    0.0000 C   0  0  0  0  0  0  0  0  0  0  0  0
   -2.1651    0.2501    0.0000 O   0  0  0  0  0  0  0  0  0  0  0  0
   -1.2990   -0.2499    0.0000 C   0  0  0  0  0  0  0  0  0  0  0  0
   -1.2990   -1.2499    0.0000 O   0  0  0  0  0  0  0  0  0  0  0  0
    1.2990    0.2501    0.0000 C   0  0  0  0  0  0  0  0  0  0  0  0
    1.2990    1.2500    0.0000 O   0  0  0  0  0  0  0  0  0  0  0  0
    0.4330   -0.2501    0.0000 C   0  0  0  0  0  0  0  0  0  0  0  0
    0.4330   -1.2500    0.0000 N   0  0  0  0  0  0  0  0  0  0  0  0
    2.1649   -0.2501    0.0000 O   0  0  0  0  0  0  0  0  0  0  0  0
    1.2990   -1.7500    0.0000 C   0  0  0  0  0  0  0  0  0  0  0  0
  5  9  1  0
  7  5  1  0
  7  1  1  1
  3  1  1  0
  2  3  1  0
  3  4  2  0
  5  6  2  0
  7  8  1  0
  8 10  1  0
V    9 *
M  END
>  <ChEBI ID>  (237) 
CHEBI:195202

>  <ChEBI Name>  (237) 
N-methyl-L-aspartate residue

>  <Star>  (237) 
3

>  <Definition>  (237) 
An L-alpha-amino acid residue that is L-aspartate residue residue bearing a single methyl substituent at the N-position.

>  <SMILES>  (237) 
CN(-*)[C@@H](CC([O-])=O)C(-*)=O

>  <Formulae>  (237) 
C5H6NO3

>  <Charge>  (237) 
-1

>  <Mass>  (237) 
128.106

>  <Monoisotopic Mass>  (237) 
128.03477

>  <Synonyms>  (237) 
N-methyl-L-aspartate residue

>  <PubMed citation Links>  (237) 
31117659

>  <PubChem Database Links>  (237) 
SID: 85393959

>  <Last Modified>  (237) 
21 Jul 2023

$$$$

     RDKit          2D

 12 12  0  0  0  0  0  0  0  0999 V2000
   25.1389  -10.9884    0.0000 C   0  0  0  0  0  0  0  0  0  0  0  0
   25.1389   -9.9884    0.0000 O   0  0  0  0  0  0  0  0  0  0  0  0
   24.2730  -11.4884    0.0000 C   0  0  0  0  0  0  0  0  0  0  0  0
   24.2730  -12.4884    0.0000 N   0  0  0  0  0  0  0  0  0  0  0  0
   23.4069  -10.9884    0.0000 C   0  0  0  0  0  0  0  0  0  0  0  0
   22.5408  -11.4884    0.0000 C   0  0  0  0  0  0  0  0  0  0  0  0
   21.6274  -11.0816    0.0000 N   0  0  0  0  0  0  0  0  0  0  0  0
   22.4364  -12.4829    0.0000 C   0  0  0  0  0  0  0  0  0  0  0  0
   20.9582  -11.8248    0.0000 C   0  0  0  0  0  0  0  0  0  0  0  0
   21.4582  -12.6908    0.0000 N   0  0  0  0  0  0  0  0  0  0  0  0
   26.0049  -11.4884    0.0000 O   0  0  0  0  0  0  0  0  0  0  0  0
   25.1391  -12.9884    0.0000 C   0  0  0  0  0  0  0  0  0  0  0  0
  1 11  1  0
  2  1  2  0
  3  1  1  0
  3  4  1  0
  3  5  1  1
  7  6  1  0
  8  6  2  0
  9  7  2  0
 10  8  1  0
  9 10  1  0
  6  5  1  0
  4 12  1  0
V   11 *
M  END
>  <ChEBI ID>  (238) 
CHEBI:195204

>  <ChEBI Name>  (238) 
N(alpha)-methyl-L-histidine residue

>  <Star>  (238) 
3

>  <Definition>  (238) 
An L-alpha-amino acid residue that is L-histidine residue bearing a single methyl substituent at the N(alpha)-position.

>  <SMILES>  (238) 
CN(-*)[C@@H](CC1=CNC=N1)C(-*)=O

>  <Formulae>  (238) 
C7H9N3O

>  <Charge>  (238) 
0

>  <Mass>  (238) 
151.166

>  <Monoisotopic Mass>  (238) 
151.07456

>  <Synonyms>  (238) 
N-methyl-L-His residue
N-methyl-L-histidine residue

>  <PubMed citation Links>  (238) 
31117659

>  <PubChem Database Links>  (238) 
SID: 85393961

>  <Last Modified>  (238) 
21 Jul 2023

$$$$

     RDKit          2D

 55 57  0  0  0  0  0  0  0  0999 V2000
    8.7070   -3.6142    0.0000 C   0  0  0  0  0  0  0  0  0  0  0  0
    7.9003   -3.0281    0.0000 O   0  0  0  0  0  0  0  0  0  0  0  0
    8.3989   -4.5625    0.0000 C   0  0  0  0  0  0  0  0  0  0  0  0
    7.0935   -3.6142    0.0000 C   0  0  0  0  0  0  0  0  0  0  0  0
    7.4017   -4.5625    0.0000 C   0  0  0  0  0  0  0  0  0  0  0  0
    8.9850   -5.3693    0.0000 O   0  0  0  0  0  0  0  0  0  0  0  0
    0.5537   -8.4984    0.0000 C   0  0  0  0  0  0  0  0  0  0  0  0
    1.4515   -8.9969    0.0000 C   0  0  0  0  0  0  0  0  0  0  0  0
   -0.3099   -8.9969    0.0000 N   0  0  0  0  0  0  0  0  0  0  0  0
   -1.1734   -8.4984    0.0000 C   0  0  0  0  0  0  0  0  0  0  0  0
   -2.0370   -8.9969    0.0000 O   0  0  0  0  0  0  0  0  0  0  0  0
   -0.2756   -7.0026    0.0000 C   0  0  0  0  0  0  0  0  0  0  0  0
   -1.1734   -7.5012    0.0000 C   0  0  0  0  0  0  0  0  0  0  0  0
   -0.2756   -6.0055    0.0000 N   0  0  0  0  0  0  0  0  0  0  0  0
   -2.0026   -6.0055    0.0000 O   0  0  0  0  0  0  0  0  0  0  0  0
   -1.1392   -5.5068    0.0000 C   0  0  0  0  0  0  0  0  0  0  0  0
    0.5880   -4.5097    0.0000 C   0  0  0  0  0  0  0  0  0  0  0  0
   -0.7742   -3.1476    0.0000 C   0  0  0  0  0  0  0  0  0  0  0  0
   -0.2756   -4.0111    0.0000 C   0  0  0  0  0  0  0  0  0  0  0  0
    0.2230   -3.1476    0.0000 C   0  0  0  0  0  0  0  0  0  0  0  0
   -1.1392   -4.5097    0.0000 C   0  0  0  0  0  0  0  0  0  0  0  0
   -2.0028   -4.0111    0.0000 O   0  0  0  0  0  0  0  0  0  0  0  0
    1.4515   -4.0111    0.0000 O   0  0  0  0  0  0  0  0  0  0  0  0
    3.4458   -4.0111    0.0000 O   0  0  0  0  0  0  0  0  0  0  0  0
    5.4401   -4.0111    0.0000 O   0  0  0  0  0  0  0  0  0  0  0  0
    2.4486   -3.0139    0.0000 O   0  0  0  0  0  0  0  0  0  0  0  0
    2.4486   -5.0082    0.0000 O   0  0  0  0  0  0  0  0  0  0  0  0
    4.4429   -3.0139    0.0000 O   0  0  0  0  0  0  0  0  0  0  0  0
    4.4429   -5.0082    0.0000 O   0  0  0  0  0  0  0  0  0  0  0  0
    2.4486   -4.0111    0.0000 P   0  0  0  0  0  0  0  0  0  0  0  0
    4.4429   -4.0111    0.0000 P   0  0  0  0  0  0  0  0  0  0  0  0
    6.1452   -3.3061    0.0000 C   0  0  0  0  0  0  0  0  0  0  0  0
    6.8155   -5.3693    0.0000 O   0  0  0  0  0  0  0  0  0  0  0  0
    5.8184   -6.3664    0.0000 O   0  0  0  0  0  0  0  0  0  0  0  0
    7.8127   -6.3664    0.0000 O   0  0  0  0  0  0  0  0  0  0  0  0
    6.8155   -6.3664    0.0000 P   0  0  0  0  0  0  0  0  0  0  0  0
    6.8155   -7.3636    0.0000 O   0  0  0  0  0  0  0  0  0  0  0  0
    9.6553   -3.3061    0.0000 N   0  0  0  0  0  0  0  0  0  0  0  0
   10.3965   -3.9732    0.0000 C   0  0  0  0  0  0  0  0  0  0  0  0
   10.0609   -2.3951    0.0000 C   0  0  0  0  0  0  0  0  0  0  0  0
   11.2599   -3.4747    0.0000 C   0  0  0  0  0  0  0  0  0  0  0  0
   10.3965   -4.9704    0.0000 N   0  0  0  0  0  0  0  0  0  0  0  0
   11.0526   -2.4993    0.0000 N   0  0  0  0  0  0  0  0  0  0  0  0
   12.1235   -3.9731    0.0000 C   0  0  0  0  0  0  0  0  0  0  0  0
   11.2601   -5.4689    0.0000 C   0  0  0  0  0  0  0  0  0  0  0  0
   12.1235   -4.9703    0.0000 N   0  0  0  0  0  0  0  0  0  0  0  0
   12.9870   -3.4746    0.0000 N   0  0  0  0  0  0  0  0  0  0  0  0
    2.3151   -8.4984    0.0000 S   0  0  0  0  0  0  0  0  0  0  0  0
    5.8497   -8.6875    0.0000 C   0  0  0  0  0  0  0  0  0  0  0  0
    4.9692   -9.1556    0.0000 C   0  0  0  0  0  0  0  0  0  0  0  0
    4.1237   -8.6272    0.0000 C   0  0  0  0  0  0  0  0  0  0  0  0
    6.6954   -9.2158    0.0000 O   0  0  0  0  0  0  0  0  0  0  0  0
    5.8845   -7.6910    0.0000 O   0  0  0  0  0  0  0  0  0  0  0  0
    4.9344  -10.1519    0.0000 N   0  0  0  0  0  0  0  0  0  0  0  0
    3.2432   -9.0953    0.0000 S   0  0  0  0  0  0  0  0  0  0  0  0
  1 38  1  1
  2  1  1  0
  3  1  1  0
  4  2  1  0
  5  3  1  0
  3  6  1  6
  4 32  1  1
  5  4  1  0
  5 33  1  6
 13 10  1  0
 10  9  1  0
  9  7  1  0
  7  8  1  0
  8 48  1  0
 10 11  2  0
 12 14  1  0
 16 14  1  0
 13 12  1  0
 16 15  2  0
 16 21  1  0
 21 19  1  0
 19 17  1  0
 17 23  1  0
 19 18  1  0
 19 20  1  0
 21 22  1  6
 23 30  1  0
 30 24  1  0
 24 31  1  0
 31 25  1  0
 30 26  2  0
 30 27  1  0
 31 28  2  0
 31 29  1  0
 32 25  1  0
 33 36  1  0
 36 34  1  0
 36 35  1  0
 36 37  2  0
 39 38  1  0
 40 38  1  0
 41 39  2  0
 42 39  1  0
 43 40  2  0
 44 41  1  0
 43 41  1  0
 45 42  2  0
 46 44  2  0
 47 44  1  0
 46 45  1  0
 50 49  1  0
 53 49  2  0
 52 49  1  0
 50 51  1  0
 50 54  1  1
 55 51  1  0
 48 55  1  0
V   52 *
M  END
>  <ChEBI ID>  (239) 
CHEBI:195328

>  <ChEBI Name>  (239) 
L-cysteine coenzyme A disulfide(4-) residue

>  <Star>  (239) 
2

>  <SMILES>  (239) 
[C@@H]1(N2C3=C(C(=NC=N3)N)N=C2)O[C@H](COP(OP(OCC([C@H](C(NCCC(NCCSSC[C@@H](C(=O)*)N*)=O)=O)O)(C)C)(=O)[O-])(=O)[O-])[C@H]([C@H]1O)OP([O-])([O-])=O

>  <Formulae>  (239) 
C24H35N8O17P3S2

>  <Charge>  (239) 
-4

>  <Mass>  (239) 
864.633

>  <Monoisotopic Mass>  (239) 
864.07744

>  <Synonyms>  (239) 
L-cysteine coenzyme A disulfide residue
S-CoAlated L-cysteine residue

>  <PubMed citation Links>  (239) 
1734967
31546169
33903070
35883853
37082257

>  <RESID Database Links>  (239) 
AA0306

>  <PubChem Database Links>  (239) 
SID: 85394081

$$$$

     RDKit          2D

 10  9  0  0  1  0  0  0  0  0999 V2000
   10.6316  -21.2448    0.0000 C   0  0  0  0  0  0  0  0  0  0  0  0
   10.6316  -20.2448    0.0000 O   0  0  0  0  0  0  0  0  0  0  0  0
    9.7655  -21.7448    0.0000 C   0  0  0  0  0  0  0  0  0  0  0  0
    9.7655  -22.7448    0.0000 N   0  0  0  0  0  0  0  0  0  0  0  0
    8.8996  -21.2448    0.0000 C   0  0  0  0  0  0  0  0  0  0  0  0
    8.0335  -21.7448    0.0000 C   0  0  0  0  0  0  0  0  0  0  0  0
    7.1675  -21.2448    0.0000 O   0  0  0  0  0  0  0  0  0  0  0  0
    8.0335  -22.7448    0.0000 O   0  0  0  0  0  0  0  0  0  0  0  0
   11.4977  -21.7447    0.0000 O   0  0  0  0  0  0  0  0  0  0  0  0
    6.3014  -21.7448    0.0000 C   0  0  0  0  0  0  0  0  0  0  0  0
  1  9  1  0
  2  1  2  0
  3  1  1  0
  3  4  1  1
  3  5  1  0
  6  5  1  0
  7  6  1  0
  8  6  2  0
  7 10  1  0
V    9 *
M  END
>  <ChEBI ID>  (240) 
CHEBI:197389

>  <ChEBI Name>  (240) 
L-aspartate methyl ester residue

>  <Star>  (240) 
2

>  <Definition>  (240) 
An amino-acid ester residue that is the methyl ester of a L-aspartate residue.

>  <SMILES>  (240) 
C(*)(=O)[C@@H](N*)CC(OC)=O

>  <Formulae>  (240) 
C5H7NO3

>  <Charge>  (240) 
0

>  <Mass>  (240) 
129.114

>  <Monoisotopic Mass>  (240) 
129.04259

>  <Synonyms>  (240) 
4-methyl L-aspartate residue
L-aspartate methyl ester residue

>  <PubMed citation Links>  (240) 
29679495

>  <PubChem Database Links>  (240) 
SID: 85396128

$$$$

     RDKit          2D

 14 13  0  0  1  0  0  0  0  0999 V2000
   11.1319   -6.2664    0.0000 C   0  0  0  0  0  0  0  0  0  0  0  0
   12.0006   -6.7715    0.0000 O   0  0  0  0  0  0  0  0  0  0  0  0
   10.2633   -6.7715    0.0000 C   0  0  0  0  0  0  0  0  0  0  0  0
   11.1319   -5.2765    0.0000 O   0  0  0  0  0  0  0  0  0  0  0  0
   10.2835   -7.7613    0.0000 N   0  0  0  0  0  0  0  0  0  0  0  0
    5.9401   -6.2664    0.0000 N   0  0  0  0  0  0  0  0  0  0  0  0
    6.8089   -6.7513    0.0000 C   0  0  0  0  0  0  0  0  0  0  0  0
    9.4148   -6.2664    0.0000 C   0  0  0  0  0  0  0  0  0  0  0  0
    7.6775   -6.2664    0.0000 C   0  0  0  0  0  0  0  0  0  0  0  0
    8.5462   -6.7715    0.0000 C   0  0  0  0  0  0  0  0  0  0  0  0
    5.0774   -6.7815    0.0000 C   0  0  0  0  0  0  0  0  0  0  0  0
    4.2001   -6.2918    0.0000 C   0  0  0  0  0  0  0  0  0  0  0  0
    5.0920   -7.7861    0.0000 O   0  0  0  0  0  0  0  0  0  0  0  0
    5.9255   -5.2618    0.0000 C   0  0  0  0  0  0  0  0  0  0  0  0
  2  1  1  0
  3  1  1  0
  4  1  2  0
  3  5  1  1
  3  8  1  0
  7  6  1  0
  9  7  1  0
 10  8  1  0
 10  9  1  0
  6 11  1  0
 11 12  1  0
 11 13  2  0
  6 14  1  0
V    2 *
M  END
>  <ChEBI ID>  (241) 
CHEBI:197459

>  <ChEBI Name>  (241) 
N(6)-acetyl-N(6)-methyl-L-lysine residue

>  <Star>  (241) 
3

>  <Definition>  (241) 
An L-alpha-amino-acid residue derived from N(6)-acetyl-N(6)-methyl-L-lysine.

>  <SMILES>  (241) 
CN(CCCC[C@H](N-*)C(-*)=O)C(C)=O

>  <Formulae>  (241) 
C9H16N2O2

>  <Charge>  (241) 
0

>  <Mass>  (241) 
184.236

>  <Monoisotopic Mass>  (241) 
184.12118

>  <Synonyms>  (241) 
Kacme residue
N(6)-acetyl-N(6)-methyl-L-lysine residue

>  <PubMed citation Links>  (241) 
37731000

>  <PubChem Database Links>  (241) 
SID: 85396195

>  <Last Modified>  (241) 
10 Nov 2023

$$$$
